
 *******************************************************************************

         NASA-GLENN CHEMICAL EQUILIBRIUM PROGRAM CEA2, MAY 21, 2004
                   BY  BONNIE MCBRIDE AND SANFORD GORDON
      REFS: NASA RP-1311, PART I, 1994 AND NASA RP-1311, PART II, 1996

 *******************************************************************************



 prob
 o/f=4,5,6,7,8,8.25,8.5,8.75,9,10 rocket equilibrium frozen nfz=1 tcest,k=3000 p,
 bar=10,20,30,40,50,60,70,80 sup,ae/at=20
 react
   fuel=C4H6,butadiene wt=100 t,k=298
   oxid=N2O wt=100 t,k=298
 output
     plot o/f p t rho h g m mw cp gam mach ivac isp
 end

 OPTIONS: TP=F  HP=F  SP=F  TV=F  UV=F  SV=F  DETN=F  SHOCK=F  REFL=F  INCD=F
 RKT=T  FROZ=T  EQL=T  IONS=F  SIUNIT=T  DEBUGF=F  SHKDBG=F  DETDBG=F  TRNSPT=F

 TRACE= 0.00E+00  S/R= 0.000000E+00  H/R= 0.000000E+00  U/R= 0.000000E+00

 Pc,BAR =    10.000000    20.000000    30.000000    40.000000    50.000000    60.000000    70.000000

 Pc,BAR =    80.000000

 Pc/P =

 SUBSONIC AREA RATIOS =

 SUPERSONIC AREA RATIOS =    20.0000

 NFZ=  1  Mdot/Ac= 0.000000E+00  Ac/At= 0.000000E+00

    REACTANT          WT.FRAC   (ENERGY/R),K   TEMP,K  DENSITY
        EXPLODED FORMULA
 F: C4H6,butadiene   1.000000   0.132284E+05   298.00  0.0000
          C  4.00000  H  6.00000
 O: N2O              1.000000   0.981347E+04   298.00  0.0000
          N  2.00000  O  1.00000

  SPECIES BEING CONSIDERED IN THIS SYSTEM
 (CONDENSED PHASE MAY HAVE NAME LISTED SEVERAL TIMES)
  LAST thermo.inp UPDATE:    9/09/04

  g 7/97  *C               tpis79  *CH              g 4/02  CH2            
  g 4/02  CH3              g11/00  CH2OH            g 7/00  CH3O           
  g 8/99  CH4              g 7/00  CH3OH            srd 01  CH3OOH         
  g 8/99  *CN              g12/99  CNN              tpis79  *CO            
  g 9/99  *CO2             tpis91  COOH             tpis91  *C2            
  g 6/01  C2H              g 1/91  C2H2,acetylene   g 5/01  C2H2,vinylidene
  g 4/02  CH2CO,ketene     g 3/02  O(CH)2O          srd 01  HO(CO)2OH      
  g 7/01  C2H3,vinyl       g 9/00  CH3CN            g 6/96  CH3CO,acetyl   
  g 1/00  C2H4             g 8/88  C2H4O,ethylen-o  g 8/88  CH3CHO,ethanal 
  g 6/00  CH3COOH          srd 01  OHCH2COOH        g 7/00  C2H5           
  g 7/00  C2H6             g 8/88  CH3N2CH3         g 8/88  C2H5OH         
  g 7/00  CH3OCH3          srd 01  CH3O2CH3         g 7/00  CCN            
  tpis91  CNC              srd 01  OCCN             tpis79  C2N2           
  g 8/00  C2O              tpis79  *C3              n 4/98  C3H3,1-propynl 
  n 4/98  C3H3,2-propynl   g 2/00  C3H4,allene      g 1/00  C3H4,propyne   
  g 5/90  C3H4,cyclo-      g 3/01  C3H5,allyl       g 2/00  C3H6,propylene 
  g 1/00  C3H6,cyclo-      g 6/01  C3H6O,propylox   g 6/97  C3H6O,acetone  
  g 1/02  C3H6O,propanal   g 7/01  C3H7,n-propyl    g 9/85  C3H7,i-propyl  
  g 2/00  C3H8             g 2/00  C3H8O,1propanol  g 2/00  C3H8O,2propanol
  srd 01  CNCOCN           g 7/88  C3O2             g tpis  *C4            
  g 7/01  C4H2,butadiyne   g 8/00  C4H4,1,3-cyclo-  n10/92  C4H6,butadiene 
  n10/93  C4H6,1butyne     n10/93  C4H6,2butyne     g 8/00  C4H6,cyclo-    
  n 4/88  C4H8,1-butene    n 4/88  C4H8,cis2-buten  n 4/88  C4H8,tr2-butene
  n 4/88  C4H8,isobutene   g 8/00  C4H8,cyclo-      g10/00  (CH3COOH)2     
  n10/84  C4H9,n-butyl     n10/84  C4H9,i-butyl     g 1/93  C4H9,s-butyl   
  g 1/93  C4H9,t-butyl     g12/00  C4H10,n-butane   g 8/00  C4H10,isobutane
  g 6/01  C4N2             g 8/00  *C5              g 5/90  C5H6,1,3cyclo- 
  g 1/93  C5H8,cyclo-      n 4/87  C5H10,1-pentene  g 2/01  C5H10,cyclo-   
  n10/84  C5H11,pentyl     g 1/93  C5H11,t-pentyl   n10/85  C5H12,n-pentane
  n10/85  C5H12,i-pentane  n10/85  CH3C(CH3)2CH3    g 2/93  C6H2           
  g11/00  C6H5,phenyl      g 8/00  C6H5O,phenoxy    g 8/00  C6H6           
  g 8/00  C6H5OH,phenol    g 1/93  C6H10,cyclo-     n 4/87  C6H12,1-hexene 
  g 6/90  C6H12,cyclo-     n10/83  C6H13,n-hexyl    g 6/01  C6H14,n-hexane 
  g 7/01  C7H7,benzyl      g 1/93  C7H8             g12/00  C7H8O,cresol-mx
  n 4/87  C7H14,1-heptene  n10/83  C7H15,n-heptyl   n10/85  C7H16,n-heptane
  n10/85  C7H16,2-methylh  n 4/89  C8H8,styrene     n10/86  C8H10,ethylbenz
  n 4/87  C8H16,1-octene   n10/83  C8H17,n-octyl    n 4/85  C8H18,n-octane 
  n 4/85  C8H18,isooctane  n10/83  C9H19,n-nonyl    g 3/01  C10H8,naphthale
  n10/83  C10H21,n-decyl   g 8/00  C12H9,o-bipheny  g 8/00  C12H10,biphenyl
  g 6/97  *H               g 6/01  HCN              g 1/01  HCO            
  tpis89  HCCN             g 6/01  HCCO             g 6/01  HNC            
  g 7/00  HNCO             g10/01  HNO              tpis89  HNO2           
  g 5/99  HNO3             g 4/02  HO2              tpis78  *H2            
  g 5/01  HCHO,formaldehy  g 6/01  HCOOH            g 8/89  H2O            
  g 6/99  H2O2             g 6/01  (HCOOH)2         g 5/97  *N             
  g 6/01  NCO              g 4/99  *NH              g 3/01  NH2            
  tpis89  NH3              tpis89  NH2OH            tpis89  *NO            
  g 4/99  NO2              j12/64  NO3              tpis78  *N2            
  g 6/01  NCN              g 5/99  N2H2             tpis89  NH2NO2         
  g 4/99  N2H4             g 4/99  N2O              g 4/99  N2O3           
  tpis89  N2O4             g 4/99  N2O5             tpis89  N3             
  g 4/99  N3H              g 5/97  *O               g 4/02  *OH            
  tpis89  *O2              g 8/01  O3               n 4/83  C(gr)          
  n 4/83  C(gr)            n 4/83  C(gr)            g11/99  H2O(cr)        
  g 8/01  H2O(L)           g 8/01  H2O(L)         

 O/F =   4.000000

                       EFFECTIVE FUEL     EFFECTIVE OXIDANT        MIXTURE
 ENTHALPY                  h(2)/R              h(1)/R               h0/R
 (KG-MOL)(K)/KG        0.24456159E+03      0.22296858E+03      0.22728718E+03

 KG-FORM.WT./KG             bi(2)               bi(1)               b0i
  *C                   0.73950221E-01      0.00000000E+00      0.14790044E-01
  *H                   0.11092533E+00      0.00000000E+00      0.22185066E-01
  *N                   0.00000000E+00      0.45441326E-01      0.36353061E-01
  *O                   0.00000000E+00      0.22720663E-01      0.18176530E-01

 POINT ITN      T            C           H           N           O 

   1   22    2965.621     -12.988     -10.110     -13.467     -19.454

 Pinf/Pt = 1.781745
   2    4    2681.800     -12.763     -10.206     -13.568     -20.357

 Pinf/Pt = 1.794035
   2    2    2678.434     -12.759     -10.208     -13.569     -20.369

 Pinf/Pt = 1.794192
   2    1    2678.391     -12.759     -10.208     -13.569     -20.369

   3    8     921.788      -3.001     -10.952     -14.334     -41.211

   3    3     890.736      -2.387     -10.983     -14.367     -42.404

   3    2     890.860      -2.389     -10.982     -14.367     -42.399






              THEORETICAL ROCKET PERFORMANCE ASSUMING EQUILIBRIUM

           COMPOSITION DURING EXPANSION FROM INFINITE AREA COMBUSTOR

 Pin =   145.0 PSIA
 CASE =                

             REACTANT                    WT FRACTION      ENERGY      TEMP
                                          (SEE NOTE)     KJ/KG-MOL      K  
 FUEL        C4H6,butadiene               1.0000000    109988.031    298.000
 OXIDANT     N2O                          1.0000000     81594.206    298.000

 O/F=    4.00000  %FUEL= 20.000000  R,EQ.RATIO= 2.237645  PHI,EQ.RATIO= 2.237645

                 CHAMBER   THROAT     EXIT
 Pinf/P            1.0000   1.7942   265.12
 P, BAR            10.000   5.5735  0.03772
 T, K             2965.62  2678.39   890.86
 RHO, KG/CU M    9.1044-1 5.6506-1 1.1564-2
 H, KJ/KG         1889.78  1280.68 -1746.14
 U, KJ/KG          791.41   294.31 -2072.32
 G, KJ/KG        -31057.8 -28475.8 -11643.5
 S, KJ/(KG)(K)    11.1098  11.1098  11.1098

 M, (1/n)          22.449   22.577   22.709
 (dLV/dLP)t      -1.00546 -1.00264 -1.00102
 (dLV/dLT)p        1.1049   1.0555   1.0173
 Cp, KJ/(KG)(K)    2.4633   2.1263   1.6752
 GAMMAs            1.2167   1.2350   1.2906
 SON VEL,M/SEC     1156.0   1103.7    648.8
 MACH NUMBER        0.000    1.000    4.156

 PERFORMANCE PARAMETERS

 Ae/At                      1.0000   20.000
 CSTAR, M/SEC               1603.4   1603.4
 CF                         0.6883   1.6818
 Ivac, M/SEC                1997.4   2817.6
 Isp, M/SEC                 1103.7   2696.6


 MOLE FRACTIONS

 CH4              0.00000  0.00000  0.00026
 *CO              0.31773  0.31844  0.27823
 *CO2             0.01428  0.01547  0.05737
 *H               0.01903  0.00956  0.00000
 *H2              0.17931  0.18521  0.23159
 H2O              0.05908  0.06002  0.01979
 *NO              0.00030  0.00009  0.00000
 *N2              0.40789  0.41033  0.41276
 *O               0.00013  0.00003  0.00000
 *OH              0.00220  0.00085  0.00000
 *O2              0.00002  0.00000  0.00000

  * THERMODYNAMIC PROPERTIES FITTED TO 20000.K

    PRODUCTS WHICH WERE CONSIDERED BUT WHOSE MOLE FRACTIONS
    WERE LESS THAN 5.000000E-06 FOR ALL ASSIGNED CONDITIONS

 *C              *CH             CH2             CH3             CH2OH          
 CH3O            CH3OH           CH3OOH          *CN             CNN            
 COOH            *C2             C2H             C2H2,acetylene  C2H2,vinylidene
 CH2CO,ketene    O(CH)2O         HO(CO)2OH       C2H3,vinyl      CH3CN          
 CH3CO,acetyl    C2H4            C2H4O,ethylen-o CH3CHO,ethanal  CH3COOH        
 OHCH2COOH       C2H5            C2H6            CH3N2CH3        C2H5OH         
 CH3OCH3         CH3O2CH3        CCN             CNC             OCCN           
 C2N2            C2O             *C3             C3H3,1-propynl  C3H3,2-propynl 
 C3H4,allene     C3H4,propyne    C3H4,cyclo-     C3H5,allyl      C3H6,propylene 
 C3H6,cyclo-     C3H6O,propylox  C3H6O,acetone   C3H6O,propanal  C3H7,n-propyl  
 C3H7,i-propyl   C3H8            C3H8O,1propanol C3H8O,2propanol CNCOCN         
 C3O2            *C4             C4H2,butadiyne  C4H4,1,3-cyclo- C4H6,butadiene 
 C4H6,1butyne    C4H6,2butyne    C4H6,cyclo-     C4H8,1-butene   C4H8,cis2-buten
 C4H8,tr2-butene C4H8,isobutene  C4H8,cyclo-     (CH3COOH)2      C4H9,n-butyl   
 C4H9,i-butyl    C4H9,s-butyl    C4H9,t-butyl    C4H10,n-butane  C4H10,isobutane
 C4N2            *C5             C5H6,1,3cyclo-  C5H8,cyclo-     C5H10,1-pentene
 C5H10,cyclo-    C5H11,pentyl    C5H11,t-pentyl  C5H12,n-pentane C5H12,i-pentane
 CH3C(CH3)2CH3   C6H2            C6H5,phenyl     C6H5O,phenoxy   C6H6           
 C6H5OH,phenol   C6H10,cyclo-    C6H12,1-hexene  C6H12,cyclo-    C6H13,n-hexyl  
 C6H14,n-hexane  C7H7,benzyl     C7H8            C7H8O,cresol-mx C7H14,1-heptene
 C7H15,n-heptyl  C7H16,n-heptane C7H16,2-methylh C8H8,styrene    C8H10,ethylbenz
 C8H16,1-octene  C8H17,n-octyl   C8H18,n-octane  C8H18,isooctane C9H19,n-nonyl  
 C10H8,naphthale C10H21,n-decyl  C12H9,o-bipheny C12H10,biphenyl HCN            
 HCO             HCCN            HCCO            HNC             HNCO           
 HNO             HNO2            HNO3            HO2             HCHO,formaldehy
 HCOOH           H2O2            (HCOOH)2        *N              NCO            
 *NH             NH2             NH3             NH2OH           NO2            
 NO3             NCN             N2H2            NH2NO2          N2H4           
 N2O             N2O3            N2O4            N2O5            N3             
 N3H             O3              C(gr)           H2O(cr)         H2O(L)         

 NOTE. WEIGHT FRACTION OF FUEL IN TOTAL FUELS AND OF OXIDANT IN TOTAL OXIDANTS





           THEORETICAL ROCKET PERFORMANCE ASSUMING FROZEN COMPOSITION

 Pin =   145.0 PSIA
 CASE =                

             REACTANT                    WT FRACTION      ENERGY      TEMP
                                          (SEE NOTE)     KJ/KG-MOL      K  
 FUEL        C4H6,butadiene               1.0000000    109988.031    298.000
 OXIDANT     N2O                          1.0000000     81594.206    298.000

 O/F=    4.00000  %FUEL= 20.000000  R,EQ.RATIO= 2.237645  PHI,EQ.RATIO= 2.237645

                 CHAMBER   THROAT     EXIT
 Pinf/P            1.0000   1.8217   290.61
 P, BAR            10.000   5.4894  0.03441
 T, K             2965.62  2601.32   776.90
 RHO, KG/CU M    9.1044-1 5.6977-1 1.1959-2
 H, KJ/KG         1889.78  1272.28 -1614.53
 U, KJ/KG          791.41   308.84 -1902.27
 G, KJ/KG        -31057.8 -27628.0 -10245.8
 S, KJ/(KG)(K)    11.1098  11.1098  11.1098

 M, (1/n)          22.449   22.449   22.449
 Cp, KJ/(KG)(K)    1.7048   1.6844   1.4085
 GAMMAs            1.2775   1.2819   1.3568
 SON VEL,M/SEC     1184.6   1111.3    624.8
 MACH NUMBER        0.000    1.000    4.237

 PERFORMANCE PARAMETERS

 Ae/At                      1.0000   20.000
 CSTAR, M/SEC               1579.3   1579.3
 CF                         0.7037   1.6763
 Ivac, M/SEC                1978.3   2756.1
 Isp, M/SEC                 1111.3   2647.4

 MOLE FRACTIONS

 *CO             0.31773   *CO2            0.01428   *H              0.01903
 *H2             0.17931   H2O             0.05908   *NO             0.00030
 *N2             0.40789   *O              0.00013   *OH             0.00220
 *O2             0.00002

  * THERMODYNAMIC PROPERTIES FITTED TO 20000.K

    PRODUCTS WHICH WERE CONSIDERED BUT WHOSE MOLE FRACTIONS
    WERE LESS THAN 5.000000E-06 FOR ALL ASSIGNED CONDITIONS

 *C              *CH             CH2             CH3             CH2OH          
 CH3O            CH3OH           CH3OOH          *CN             CNN            
 COOH            *C2             C2H             C2H2,acetylene  C2H2,vinylidene
 CH2CO,ketene    O(CH)2O         HO(CO)2OH       C2H3,vinyl      CH3CN          
 CH3CO,acetyl    C2H4            C2H4O,ethylen-o CH3CHO,ethanal  CH3COOH        
 OHCH2COOH       C2H5            C2H6            CH3N2CH3        C2H5OH         
 CH3OCH3         CH3O2CH3        CCN             CNC             OCCN           
 C2N2            C2O             *C3             C3H3,1-propynl  C3H3,2-propynl 
 C3H4,allene     C3H4,propyne    C3H4,cyclo-     C3H5,allyl      C3H6,propylene 
 C3H6,cyclo-     C3H6O,propylox  C3H6O,acetone   C3H6O,propanal  C3H7,n-propyl  
 C3H7,i-propyl   C3H8            C3H8O,1propanol C3H8O,2propanol CNCOCN         
 C3O2            *C4             C4H2,butadiyne  C4H4,1,3-cyclo- C4H6,butadiene 
 C4H6,1butyne    C4H6,2butyne    C4H6,cyclo-     C4H8,1-butene   C4H8,cis2-buten
 C4H8,tr2-butene C4H8,isobutene  C4H8,cyclo-     (CH3COOH)2      C4H9,n-butyl   
 C4H9,i-butyl    C4H9,s-butyl    C4H9,t-butyl    C4H10,n-butane  C4H10,isobutane
 C4N2            *C5             C5H6,1,3cyclo-  C5H8,cyclo-     C5H10,1-pentene
 C5H10,cyclo-    C5H11,pentyl    C5H11,t-pentyl  C5H12,n-pentane C5H12,i-pentane
 CH3C(CH3)2CH3   C6H2            C6H5,phenyl     C6H5O,phenoxy   C6H6           
 C6H5OH,phenol   C6H10,cyclo-    C6H12,1-hexene  C6H12,cyclo-    C6H13,n-hexyl  
 C6H14,n-hexane  C7H7,benzyl     C7H8            C7H8O,cresol-mx C7H14,1-heptene
 C7H15,n-heptyl  C7H16,n-heptane C7H16,2-methylh C8H8,styrene    C8H10,ethylbenz
 C8H16,1-octene  C8H17,n-octyl   C8H18,n-octane  C8H18,isooctane C9H19,n-nonyl  
 C10H8,naphthale C10H21,n-decyl  C12H9,o-bipheny C12H10,biphenyl HCN            
 HCO             HCCN            HCCO            HNC             HNCO           
 HNO             HNO2            HNO3            HO2             HCHO,formaldehy
 HCOOH           H2O2            (HCOOH)2        *N              NCO            
 *NH             NH2             NH3             NH2OH           NO2            
 NO3             NCN             N2H2            NH2NO2          N2H4           
 N2O             N2O3            N2O4            N2O5            N3             
 N3H             O3              C(gr)           H2O(cr)         H2O(L)         

 NOTE. WEIGHT FRACTION OF FUEL IN TOTAL FUELS AND OF OXIDANT IN TOTAL OXIDANTS






 POINT ITN      T            C           H           N           O 

   1    3    2995.444     -12.369      -9.775     -13.138     -19.370

 Pinf/Pt = 1.787651
   2    4    2694.485     -12.109      -9.866     -13.231     -20.313

 Pinf/Pt = 1.799351
   2    2    2691.146     -12.106      -9.867     -13.232     -20.325

 Pinf/Pt = 1.799485
   2    1    2691.107     -12.106      -9.867     -13.232     -20.325

   3    8     920.754      -2.300     -10.609     -13.990     -41.242

   3    3     893.754      -1.786     -10.643     -14.024     -42.271

   3    2     893.971      -1.791     -10.642     -14.024     -42.262






              THEORETICAL ROCKET PERFORMANCE ASSUMING EQUILIBRIUM

           COMPOSITION DURING EXPANSION FROM INFINITE AREA COMBUSTOR

 Pin =   290.1 PSIA
 CASE =                

             REACTANT                    WT FRACTION      ENERGY      TEMP
                                          (SEE NOTE)     KJ/KG-MOL      K  
 FUEL        C4H6,butadiene               1.0000000    109988.031    298.000
 OXIDANT     N2O                          1.0000000     81594.206    298.000

 O/F=    4.00000  %FUEL= 20.000000  R,EQ.RATIO= 2.237645  PHI,EQ.RATIO= 2.237645

                 CHAMBER   THROAT     EXIT
 Pinf/P            1.0000   1.7995   264.90
 P, BAR            20.000   11.114  0.07550
 T, K             2995.44  2691.11   893.97
 RHO, KG/CU M    1.8071 0 1.1230 0 2.3096-2
 H, KJ/KG         1889.78  1274.25 -1748.31
 U, KJ/KG          783.06   284.53 -2075.22
 G, KJ/KG        -30621.1 -27933.5 -11451.0
 S, KJ/(KG)(K)    10.8534  10.8534  10.8534

 M, (1/n)          22.504   22.608   22.737
 (dLV/dLP)t      -1.00428 -1.00198 -1.00345
 (dLV/dLT)p        1.0812   1.0412   1.0584
 Cp, KJ/(KG)(K)    2.2866   2.0133   1.9302
 GAMMAs            1.2264   1.2439   1.2639
 SON VEL,M/SEC     1165.0   1109.5    642.8
 MACH NUMBER        0.000    1.000    4.197

 PERFORMANCE PARAMETERS

 Ae/At                      1.0000   20.000
 CSTAR, M/SEC               1605.2   1605.2
 CF                         0.6912   1.6805
 Ivac, M/SEC                2001.5   2818.6
 Isp, M/SEC                 1109.5   2697.4


 MOLE FRACTIONS

 CH4              0.00000  0.00000  0.00089
 *CO              0.31859  0.31894  0.27767
 *CO2             0.01423  0.01542  0.05772
 *H               0.01485  0.00713  0.00000
 HCN              0.00001  0.00001  0.00000
 HCO              0.00001  0.00000  0.00000
 *H2              0.18141  0.18646  0.23025
 H2O              0.05989  0.06042  0.02017
 NH3              0.00001  0.00001  0.00001
 *NO              0.00024  0.00007  0.00000
 *N2              0.40891  0.41089  0.41328
 *O               0.00008  0.00001  0.00000
 *OH              0.00176  0.00064  0.00000
 *O2              0.00001  0.00000  0.00000

  * THERMODYNAMIC PROPERTIES FITTED TO 20000.K

    PRODUCTS WHICH WERE CONSIDERED BUT WHOSE MOLE FRACTIONS
    WERE LESS THAN 5.000000E-06 FOR ALL ASSIGNED CONDITIONS

 *C              *CH             CH2             CH3             CH2OH          
 CH3O            CH3OH           CH3OOH          *CN             CNN            
 COOH            *C2             C2H             C2H2,acetylene  C2H2,vinylidene
 CH2CO,ketene    O(CH)2O         HO(CO)2OH       C2H3,vinyl      CH3CN          
 CH3CO,acetyl    C2H4            C2H4O,ethylen-o CH3CHO,ethanal  CH3COOH        
 OHCH2COOH       C2H5            C2H6            CH3N2CH3        C2H5OH         
 CH3OCH3         CH3O2CH3        CCN             CNC             OCCN           
 C2N2            C2O             *C3             C3H3,1-propynl  C3H3,2-propynl 
 C3H4,allene     C3H4,propyne    C3H4,cyclo-     C3H5,allyl      C3H6,propylene 
 C3H6,cyclo-     C3H6O,propylox  C3H6O,acetone   C3H6O,propanal  C3H7,n-propyl  
 C3H7,i-propyl   C3H8            C3H8O,1propanol C3H8O,2propanol CNCOCN         
 C3O2            *C4             C4H2,butadiyne  C4H4,1,3-cyclo- C4H6,butadiene 
 C4H6,1butyne    C4H6,2butyne    C4H6,cyclo-     C4H8,1-butene   C4H8,cis2-buten
 C4H8,tr2-butene C4H8,isobutene  C4H8,cyclo-     (CH3COOH)2      C4H9,n-butyl   
 C4H9,i-butyl    C4H9,s-butyl    C4H9,t-butyl    C4H10,n-butane  C4H10,isobutane
 C4N2            *C5             C5H6,1,3cyclo-  C5H8,cyclo-     C5H10,1-pentene
 C5H10,cyclo-    C5H11,pentyl    C5H11,t-pentyl  C5H12,n-pentane C5H12,i-pentane
 CH3C(CH3)2CH3   C6H2            C6H5,phenyl     C6H5O,phenoxy   C6H6           
 C6H5OH,phenol   C6H10,cyclo-    C6H12,1-hexene  C6H12,cyclo-    C6H13,n-hexyl  
 C6H14,n-hexane  C7H7,benzyl     C7H8            C7H8O,cresol-mx C7H14,1-heptene
 C7H15,n-heptyl  C7H16,n-heptane C7H16,2-methylh C8H8,styrene    C8H10,ethylbenz
 C8H16,1-octene  C8H17,n-octyl   C8H18,n-octane  C8H18,isooctane C9H19,n-nonyl  
 C10H8,naphthale C10H21,n-decyl  C12H9,o-bipheny C12H10,biphenyl HCCN           
 HCCO            HNC             HNCO            HNO             HNO2           
 HNO3            HO2             HCHO,formaldehy HCOOH           H2O2           
 (HCOOH)2        *N              NCO             *NH             NH2            
 NH2OH           NO2             NO3             NCN             N2H2           
 NH2NO2          N2H4            N2O             N2O3            N2O4           
 N2O5            N3              N3H             O3              C(gr)          
 H2O(cr)         H2O(L)         

 NOTE. WEIGHT FRACTION OF FUEL IN TOTAL FUELS AND OF OXIDANT IN TOTAL OXIDANTS





           THEORETICAL ROCKET PERFORMANCE ASSUMING FROZEN COMPOSITION

 Pin =   290.1 PSIA
 CASE =                

             REACTANT                    WT FRACTION      ENERGY      TEMP
                                          (SEE NOTE)     KJ/KG-MOL      K  
 FUEL        C4H6,butadiene               1.0000000    109988.031    298.000
 OXIDANT     N2O                          1.0000000     81594.206    298.000

 O/F=    4.00000  %FUEL= 20.000000  R,EQ.RATIO= 2.237645  PHI,EQ.RATIO= 2.237645

                 CHAMBER   THROAT     EXIT
 Pinf/P            1.0000   1.8210   289.08
 P, BAR            20.000   10.983  0.06918
 T, K             2995.44  2628.76   789.61
 RHO, KG/CU M    1.8071 0 1.1308 0 2.3715-2
 H, KJ/KG         1889.78  1267.84 -1645.67
 U, KJ/KG          783.06   296.59 -1937.41
 G, KJ/KG        -30621.1 -27263.3 -10215.7
 S, KJ/(KG)(K)    10.8534  10.8534  10.8534

 M, (1/n)          22.504   22.504   22.504
 Cp, KJ/(KG)(K)    1.7059   1.6856   1.4108
 GAMMAs            1.2765   1.2807   1.3548
 SON VEL,M/SEC     1188.6   1115.3    628.7
 MACH NUMBER        0.000    1.000    4.230

 PERFORMANCE PARAMETERS

 Ae/At                      1.0000   20.000
 CSTAR, M/SEC               1585.8   1585.8
 CF                         0.7033   1.6768
 Ivac, M/SEC                1986.1   2768.8
 Isp, M/SEC                 1115.3   2659.1

 MOLE FRACTIONS

 *CO             0.31859   *CO2            0.01423   *H              0.01485
 HCN             0.00001   HCO             0.00001   *H2             0.18141
 H2O             0.05989   NH3             0.00001   *NO             0.00024
 *N2             0.40891   *O              0.00008   *OH             0.00176
 *O2             0.00001

  * THERMODYNAMIC PROPERTIES FITTED TO 20000.K

    PRODUCTS WHICH WERE CONSIDERED BUT WHOSE MOLE FRACTIONS
    WERE LESS THAN 5.000000E-06 FOR ALL ASSIGNED CONDITIONS

 *C              *CH             CH2             CH3             CH2OH          
 CH3O            CH3OH           CH3OOH          *CN             CNN            
 COOH            *C2             C2H             C2H2,acetylene  C2H2,vinylidene
 CH2CO,ketene    O(CH)2O         HO(CO)2OH       C2H3,vinyl      CH3CN          
 CH3CO,acetyl    C2H4            C2H4O,ethylen-o CH3CHO,ethanal  CH3COOH        
 OHCH2COOH       C2H5            C2H6            CH3N2CH3        C2H5OH         
 CH3OCH3         CH3O2CH3        CCN             CNC             OCCN           
 C2N2            C2O             *C3             C3H3,1-propynl  C3H3,2-propynl 
 C3H4,allene     C3H4,propyne    C3H4,cyclo-     C3H5,allyl      C3H6,propylene 
 C3H6,cyclo-     C3H6O,propylox  C3H6O,acetone   C3H6O,propanal  C3H7,n-propyl  
 C3H7,i-propyl   C3H8            C3H8O,1propanol C3H8O,2propanol CNCOCN         
 C3O2            *C4             C4H2,butadiyne  C4H4,1,3-cyclo- C4H6,butadiene 
 C4H6,1butyne    C4H6,2butyne    C4H6,cyclo-     C4H8,1-butene   C4H8,cis2-buten
 C4H8,tr2-butene C4H8,isobutene  C4H8,cyclo-     (CH3COOH)2      C4H9,n-butyl   
 C4H9,i-butyl    C4H9,s-butyl    C4H9,t-butyl    C4H10,n-butane  C4H10,isobutane
 C4N2            *C5             C5H6,1,3cyclo-  C5H8,cyclo-     C5H10,1-pentene
 C5H10,cyclo-    C5H11,pentyl    C5H11,t-pentyl  C5H12,n-pentane C5H12,i-pentane
 CH3C(CH3)2CH3   C6H2            C6H5,phenyl     C6H5O,phenoxy   C6H6           
 C6H5OH,phenol   C6H10,cyclo-    C6H12,1-hexene  C6H12,cyclo-    C6H13,n-hexyl  
 C6H14,n-hexane  C7H7,benzyl     C7H8            C7H8O,cresol-mx C7H14,1-heptene
 C7H15,n-heptyl  C7H16,n-heptane C7H16,2-methylh C8H8,styrene    C8H10,ethylbenz
 C8H16,1-octene  C8H17,n-octyl   C8H18,n-octane  C8H18,isooctane C9H19,n-nonyl  
 C10H8,naphthale C10H21,n-decyl  C12H9,o-bipheny C12H10,biphenyl HCCN           
 HCCO            HNC             HNCO            HNO             HNO2           
 HNO3            HO2             HCHO,formaldehy HCOOH           H2O2           
 (HCOOH)2        *N              NCO             *NH             NH2            
 NH2OH           NO2             NO3             NCN             N2H2           
 NH2NO2          N2H4            N2O             N2O3            N2O4           
 N2O5            N3              N3H             O3              C(gr)          
 H2O(cr)         H2O(L)         

 NOTE. WEIGHT FRACTION OF FUEL IN TOTAL FUELS AND OF OXIDANT IN TOTAL OXIDANTS






 POINT ITN      T            C           H           N           O 

   1    3    3010.497     -12.001      -9.578     -12.944     -19.329

 Pinf/Pt = 1.790890
   2    4    2700.375     -11.723      -9.667     -13.033     -20.293

 Pinf/Pt = 1.802058
   2    2    2697.122     -11.719      -9.668     -13.034     -20.304

 Pinf/Pt = 1.802176
   2    1    2697.088     -11.719      -9.668     -13.034     -20.304

   3    9     922.353      -1.949     -10.413     -13.791     -41.173

   3    3     898.793      -1.523     -10.448     -13.826     -42.057

   3    2     899.016      -1.527     -10.448     -13.825     -42.049






              THEORETICAL ROCKET PERFORMANCE ASSUMING EQUILIBRIUM

           COMPOSITION DURING EXPANSION FROM INFINITE AREA COMBUSTOR

 Pin =   435.1 PSIA
 CASE =                

             REACTANT                    WT FRACTION      ENERGY      TEMP
                                          (SEE NOTE)     KJ/KG-MOL      K  
 FUEL        C4H6,butadiene               1.0000000    109988.031    298.000
 OXIDANT     N2O                          1.0000000     81594.206    298.000

 O/F=    4.00000  %FUEL= 20.000000  R,EQ.RATIO= 2.237645  PHI,EQ.RATIO= 2.237645

                 CHAMBER   THROAT     EXIT
 Pinf/P            1.0000   1.8022   263.93
 P, BAR            30.000   16.647  0.11367
 T, K             3010.50  2697.09   899.02
 RHO, KG/CU M    2.7005 0 1.6793 0 3.4627-2
 H, KJ/KG         1889.78  1271.03 -1748.49
 U, KJ/KG          778.87   279.77 -2076.76
 G, KJ/KG        -30333.8 -27597.9 -11371.3
 S, KJ/(KG)(K)    10.7037  10.7037  10.7037

 M, (1/n)          22.532   22.623   22.771
 (dLV/dLP)t      -1.00368 -1.00166 -1.00610
 (dLV/dLT)p        1.0693   1.0344   1.1026
 Cp, KJ/(KG)(K)    2.1998   1.9601   2.2011
 GAMMAs            1.2317   1.2484   1.2432
 SON VEL,M/SEC     1169.7   1112.4    638.8
 MACH NUMBER        0.000    1.000    4.223

 PERFORMANCE PARAMETERS

 Ae/At                      1.0000   20.000
 CSTAR, M/SEC               1605.9   1605.9
 CF                         0.6927   1.6798
 Ivac, M/SEC                2003.5   2819.2
 Isp, M/SEC                 1112.4   2697.5


 MOLE FRACTIONS

 CH4              0.00000  0.00000  0.00163
 *CO              0.31901  0.31917  0.27714
 *CO2             0.01420  0.01540  0.05802
 *H               0.01274  0.00597  0.00000
 HCN              0.00002  0.00001  0.00000
 HCO              0.00001  0.00000  0.00000
 *H2              0.18247  0.18706  0.22860
 H2O              0.06030  0.06061  0.02072
 NH3              0.00001  0.00001  0.00001
 *NO              0.00021  0.00006  0.00000
 *N2              0.40943  0.41116  0.41389
 *O               0.00006  0.00001  0.00000
 *OH              0.00153  0.00054  0.00000
 *O2              0.00001  0.00000  0.00000

  * THERMODYNAMIC PROPERTIES FITTED TO 20000.K

    PRODUCTS WHICH WERE CONSIDERED BUT WHOSE MOLE FRACTIONS
    WERE LESS THAN 5.000000E-06 FOR ALL ASSIGNED CONDITIONS

 *C              *CH             CH2             CH3             CH2OH          
 CH3O            CH3OH           CH3OOH          *CN             CNN            
 COOH            *C2             C2H             C2H2,acetylene  C2H2,vinylidene
 CH2CO,ketene    O(CH)2O         HO(CO)2OH       C2H3,vinyl      CH3CN          
 CH3CO,acetyl    C2H4            C2H4O,ethylen-o CH3CHO,ethanal  CH3COOH        
 OHCH2COOH       C2H5            C2H6            CH3N2CH3        C2H5OH         
 CH3OCH3         CH3O2CH3        CCN             CNC             OCCN           
 C2N2            C2O             *C3             C3H3,1-propynl  C3H3,2-propynl 
 C3H4,allene     C3H4,propyne    C3H4,cyclo-     C3H5,allyl      C3H6,propylene 
 C3H6,cyclo-     C3H6O,propylox  C3H6O,acetone   C3H6O,propanal  C3H7,n-propyl  
 C3H7,i-propyl   C3H8            C3H8O,1propanol C3H8O,2propanol CNCOCN         
 C3O2            *C4             C4H2,butadiyne  C4H4,1,3-cyclo- C4H6,butadiene 
 C4H6,1butyne    C4H6,2butyne    C4H6,cyclo-     C4H8,1-butene   C4H8,cis2-buten
 C4H8,tr2-butene C4H8,isobutene  C4H8,cyclo-     (CH3COOH)2      C4H9,n-butyl   
 C4H9,i-butyl    C4H9,s-butyl    C4H9,t-butyl    C4H10,n-butane  C4H10,isobutane
 C4N2            *C5             C5H6,1,3cyclo-  C5H8,cyclo-     C5H10,1-pentene
 C5H10,cyclo-    C5H11,pentyl    C5H11,t-pentyl  C5H12,n-pentane C5H12,i-pentane
 CH3C(CH3)2CH3   C6H2            C6H5,phenyl     C6H5O,phenoxy   C6H6           
 C6H5OH,phenol   C6H10,cyclo-    C6H12,1-hexene  C6H12,cyclo-    C6H13,n-hexyl  
 C6H14,n-hexane  C7H7,benzyl     C7H8            C7H8O,cresol-mx C7H14,1-heptene
 C7H15,n-heptyl  C7H16,n-heptane C7H16,2-methylh C8H8,styrene    C8H10,ethylbenz
 C8H16,1-octene  C8H17,n-octyl   C8H18,n-octane  C8H18,isooctane C9H19,n-nonyl  
 C10H8,naphthale C10H21,n-decyl  C12H9,o-bipheny C12H10,biphenyl HCCN           
 HCCO            HNC             HNCO            HNO             HNO2           
 HNO3            HO2             HCHO,formaldehy HCOOH           H2O2           
 (HCOOH)2        *N              NCO             *NH             NH2            
 NH2OH           NO2             NO3             NCN             N2H2           
 NH2NO2          N2H4            N2O             N2O3            N2O4           
 N2O5            N3              N3H             O3              C(gr)          
 H2O(cr)         H2O(L)         

 NOTE. WEIGHT FRACTION OF FUEL IN TOTAL FUELS AND OF OXIDANT IN TOTAL OXIDANTS





           THEORETICAL ROCKET PERFORMANCE ASSUMING FROZEN COMPOSITION

 Pin =   435.1 PSIA
 CASE =                

             REACTANT                    WT FRACTION      ENERGY      TEMP
                                          (SEE NOTE)     KJ/KG-MOL      K  
 FUEL        C4H6,butadiene               1.0000000    109988.031    298.000
 OXIDANT     N2O                          1.0000000     81594.206    298.000

 O/F=    4.00000  %FUEL= 20.000000  R,EQ.RATIO= 2.237645  PHI,EQ.RATIO= 2.237645

                 CHAMBER   THROAT     EXIT
 Pinf/P            1.0000   1.8206   288.31
 P, BAR            30.000   16.478  0.10405
 T, K             3010.50  2642.62   796.08
 RHO, KG/CU M    2.7005 0 1.6897 0 3.5421-2
 H, KJ/KG         1889.78  1265.61 -1661.34
 U, KJ/KG          778.87   290.45 -1955.10
 G, KJ/KG        -30333.8 -27020.3 -10182.3
 S, KJ/(KG)(K)    10.7037  10.7037  10.7037

 M, (1/n)          22.532   22.532   22.532
 Cp, KJ/(KG)(K)    1.7064   1.6862   1.4120
 GAMMAs            1.2759   1.2802   1.3538
 SON VEL,M/SEC     1190.6   1117.3    630.6
 MACH NUMBER        0.000    1.000    4.226

 PERFORMANCE PARAMETERS

 Ae/At                      1.0000   20.000
 CSTAR, M/SEC               1589.0   1589.0
 CF                         0.7031   1.6771
 Ivac, M/SEC                1990.1   2775.2
 Isp, M/SEC                 1117.3   2665.0

 MOLE FRACTIONS

 *CO             0.31901   *CO2            0.01420   *H              0.01274
 HCN             0.00002   HCO             0.00001   *H2             0.18247
 H2O             0.06030   NH3             0.00001   *NO             0.00021
 *N2             0.40943   *O              0.00006   *OH             0.00153
 *O2             0.00001

  * THERMODYNAMIC PROPERTIES FITTED TO 20000.K

    PRODUCTS WHICH WERE CONSIDERED BUT WHOSE MOLE FRACTIONS
    WERE LESS THAN 5.000000E-06 FOR ALL ASSIGNED CONDITIONS

 *C              *CH             CH2             CH3             CH2OH          
 CH3O            CH3OH           CH3OOH          *CN             CNN            
 COOH            *C2             C2H             C2H2,acetylene  C2H2,vinylidene
 CH2CO,ketene    O(CH)2O         HO(CO)2OH       C2H3,vinyl      CH3CN          
 CH3CO,acetyl    C2H4            C2H4O,ethylen-o CH3CHO,ethanal  CH3COOH        
 OHCH2COOH       C2H5            C2H6            CH3N2CH3        C2H5OH         
 CH3OCH3         CH3O2CH3        CCN             CNC             OCCN           
 C2N2            C2O             *C3             C3H3,1-propynl  C3H3,2-propynl 
 C3H4,allene     C3H4,propyne    C3H4,cyclo-     C3H5,allyl      C3H6,propylene 
 C3H6,cyclo-     C3H6O,propylox  C3H6O,acetone   C3H6O,propanal  C3H7,n-propyl  
 C3H7,i-propyl   C3H8            C3H8O,1propanol C3H8O,2propanol CNCOCN         
 C3O2            *C4             C4H2,butadiyne  C4H4,1,3-cyclo- C4H6,butadiene 
 C4H6,1butyne    C4H6,2butyne    C4H6,cyclo-     C4H8,1-butene   C4H8,cis2-buten
 C4H8,tr2-butene C4H8,isobutene  C4H8,cyclo-     (CH3COOH)2      C4H9,n-butyl   
 C4H9,i-butyl    C4H9,s-butyl    C4H9,t-butyl    C4H10,n-butane  C4H10,isobutane
 C4N2            *C5             C5H6,1,3cyclo-  C5H8,cyclo-     C5H10,1-pentene
 C5H10,cyclo-    C5H11,pentyl    C5H11,t-pentyl  C5H12,n-pentane C5H12,i-pentane
 CH3C(CH3)2CH3   C6H2            C6H5,phenyl     C6H5O,phenoxy   C6H6           
 C6H5OH,phenol   C6H10,cyclo-    C6H12,1-hexene  C6H12,cyclo-    C6H13,n-hexyl  
 C6H14,n-hexane  C7H7,benzyl     C7H8            C7H8O,cresol-mx C7H14,1-heptene
 C7H15,n-heptyl  C7H16,n-heptane C7H16,2-methylh C8H8,styrene    C8H10,ethylbenz
 C8H16,1-octene  C8H17,n-octyl   C8H18,n-octane  C8H18,isooctane C9H19,n-nonyl  
 C10H8,naphthale C10H21,n-decyl  C12H9,o-bipheny C12H10,biphenyl HCCN           
 HCCO            HNC             HNCO            HNO             HNO2           
 HNO3            HO2             HCHO,formaldehy HCOOH           H2O2           
 (HCOOH)2        *N              NCO             *NH             NH2            
 NH2OH           NO2             NO3             NCN             N2H2           
 NH2NO2          N2H4            N2O             N2O3            N2O4           
 N2O5            N3              N3H             O3              C(gr)          
 H2O(cr)         H2O(L)         

 NOTE. WEIGHT FRACTION OF FUEL IN TOTAL FUELS AND OF OXIDANT IN TOTAL OXIDANTS






 POINT ITN      T            C           H           N           O 

   1    3    3020.138     -11.737      -9.438     -12.805     -19.302

 Pinf/Pt = 1.793064
   2    4    2703.959     -11.446      -9.525     -12.892     -20.280

 Pinf/Pt = 1.803793
   2    2    2700.795     -11.443      -9.526     -12.893     -20.291

 Pinf/Pt = 1.803900
   2    1    2700.763     -11.443      -9.526     -12.893     -20.292

   3   10     924.931      -1.739     -10.276     -13.651     -41.067

   3    3     904.004      -1.379     -10.313     -13.686     -41.840

 ADD  C(gr)          
   3    1     904.208      -1.386     -10.313     -13.686     -41.831

   3    2     904.308      -1.386     -10.313     -13.686     -41.828






              THEORETICAL ROCKET PERFORMANCE ASSUMING EQUILIBRIUM

           COMPOSITION DURING EXPANSION FROM INFINITE AREA COMBUSTOR

 Pin =   580.2 PSIA
 CASE =                

             REACTANT                    WT FRACTION      ENERGY      TEMP
                                          (SEE NOTE)     KJ/KG-MOL      K  
 FUEL        C4H6,butadiene               1.0000000    109988.031    298.000
 OXIDANT     N2O                          1.0000000     81594.206    298.000

 O/F=    4.00000  %FUEL= 20.000000  R,EQ.RATIO= 2.237645  PHI,EQ.RATIO= 2.237645

                 CHAMBER   THROAT     EXIT
 Pinf/P            1.0000   1.8039   262.81
 P, BAR            40.000   22.174  0.15220
 T, K             3020.14  2700.76   904.31
 RHO, KG/CU M    3.5920 0 2.2348 0 4.6159-2
 H, KJ/KG         1889.78  1268.99 -1748.14
 U, KJ/KG          776.20   276.78 -2077.86
 G, KJ/KG        -30116.5 -27352.7 -11331.7
 S, KJ/(KG)(K)    10.5976  10.5976  10.5976

 M, (1/n)          22.550   22.632   22.803
 MW, MOL WT        22.550   22.632   22.803
 (dLV/dLP)t      -1.00331 -1.00147 -1.04657
 (dLV/dLT)p        1.0617   1.0302   1.9691
 Cp, KJ/(KG)(K)    2.1451   1.9274   8.9864
 GAMMAs            1.2353   1.2513   1.1245
 SON VEL,M/SEC     1172.8   1114.3    608.9
 MACH NUMBER        0.000    1.000    4.430

 PERFORMANCE PARAMETERS

 Ae/At                      1.0000   20.000
 CSTAR, M/SEC               1606.3   1606.3
 CF                         0.6937   1.6792
 Ivac, M/SEC                2004.7   2819.6
 Isp, M/SEC                 1114.3   2697.4


 MOLE FRACTIONS

 CH4              0.00000  0.00000  0.00232
 *CO              0.31928  0.31932  0.27661
 *CO2             0.01419  0.01539  0.05829
 *H               0.01138  0.00525  0.00000
 HCN              0.00002  0.00001  0.00000
 HCO              0.00001  0.00000  0.00000
 *H2              0.18314  0.18742  0.22698
 H2O              0.06057  0.06073  0.02129
 NH3              0.00001  0.00001  0.00001
 *NO              0.00019  0.00005  0.00000
 *N2              0.40976  0.41133  0.41447
 *O               0.00005  0.00001  0.00000
 *OH              0.00137  0.00048  0.00000
 *O2              0.00001  0.00000  0.00000
 C(gr)            0.00000  0.00000  0.00003

  * THERMODYNAMIC PROPERTIES FITTED TO 20000.K

    PRODUCTS WHICH WERE CONSIDERED BUT WHOSE MOLE FRACTIONS
    WERE LESS THAN 5.000000E-06 FOR ALL ASSIGNED CONDITIONS

 *C              *CH             CH2             CH3             CH2OH          
 CH3O            CH3OH           CH3OOH          *CN             CNN            
 COOH            *C2             C2H             C2H2,acetylene  C2H2,vinylidene
 CH2CO,ketene    O(CH)2O         HO(CO)2OH       C2H3,vinyl      CH3CN          
 CH3CO,acetyl    C2H4            C2H4O,ethylen-o CH3CHO,ethanal  CH3COOH        
 OHCH2COOH       C2H5            C2H6            CH3N2CH3        C2H5OH         
 CH3OCH3         CH3O2CH3        CCN             CNC             OCCN           
 C2N2            C2O             *C3             C3H3,1-propynl  C3H3,2-propynl 
 C3H4,allene     C3H4,propyne    C3H4,cyclo-     C3H5,allyl      C3H6,propylene 
 C3H6,cyclo-     C3H6O,propylox  C3H6O,acetone   C3H6O,propanal  C3H7,n-propyl  
 C3H7,i-propyl   C3H8            C3H8O,1propanol C3H8O,2propanol CNCOCN         
 C3O2            *C4             C4H2,butadiyne  C4H4,1,3-cyclo- C4H6,butadiene 
 C4H6,1butyne    C4H6,2butyne    C4H6,cyclo-     C4H8,1-butene   C4H8,cis2-buten
 C4H8,tr2-butene C4H8,isobutene  C4H8,cyclo-     (CH3COOH)2      C4H9,n-butyl   
 C4H9,i-butyl    C4H9,s-butyl    C4H9,t-butyl    C4H10,n-butane  C4H10,isobutane
 C4N2            *C5             C5H6,1,3cyclo-  C5H8,cyclo-     C5H10,1-pentene
 C5H10,cyclo-    C5H11,pentyl    C5H11,t-pentyl  C5H12,n-pentane C5H12,i-pentane
 CH3C(CH3)2CH3   C6H2            C6H5,phenyl     C6H5O,phenoxy   C6H6           
 C6H5OH,phenol   C6H10,cyclo-    C6H12,1-hexene  C6H12,cyclo-    C6H13,n-hexyl  
 C6H14,n-hexane  C7H7,benzyl     C7H8            C7H8O,cresol-mx C7H14,1-heptene
 C7H15,n-heptyl  C7H16,n-heptane C7H16,2-methylh C8H8,styrene    C8H10,ethylbenz
 C8H16,1-octene  C8H17,n-octyl   C8H18,n-octane  C8H18,isooctane C9H19,n-nonyl  
 C10H8,naphthale C10H21,n-decyl  C12H9,o-bipheny C12H10,biphenyl HCCN           
 HCCO            HNC             HNCO            HNO             HNO2           
 HNO3            HO2             HCHO,formaldehy HCOOH           H2O2           
 (HCOOH)2        *N              NCO             *NH             NH2            
 NH2OH           NO2             NO3             NCN             N2H2           
 NH2NO2          N2H4            N2O             N2O3            N2O4           
 N2O5            N3              N3H             O3              H2O(cr)        
 H2O(L)         

 NOTE. WEIGHT FRACTION OF FUEL IN TOTAL FUELS AND OF OXIDANT IN TOTAL OXIDANTS





           THEORETICAL ROCKET PERFORMANCE ASSUMING FROZEN COMPOSITION

 Pin =   580.2 PSIA
 CASE =                

             REACTANT                    WT FRACTION      ENERGY      TEMP
                                          (SEE NOTE)     KJ/KG-MOL      K  
 FUEL        C4H6,butadiene               1.0000000    109988.031    298.000
 OXIDANT     N2O                          1.0000000     81594.206    298.000

 O/F=    4.00000  %FUEL= 20.000000  R,EQ.RATIO= 2.237645  PHI,EQ.RATIO= 2.237645

                 CHAMBER   THROAT     EXIT
 Pinf/P            1.0000   1.8204   287.82
 P, BAR            40.000   21.973  0.13897
 T, K             3020.14  2651.50   800.23
 RHO, KG/CU M    3.5920 0 2.2475 0 4.7100-2
 H, KJ/KG         1889.78  1264.18 -1671.35
 U, KJ/KG          776.20   286.52 -1966.41
 G, KJ/KG        -30116.5 -26835.4 -10151.9
 S, KJ/(KG)(K)    10.5976  10.5976  10.5976

 M, (1/n)          22.550   22.550   22.550
 MW, MOL WT        22.550   22.550   22.550
 Cp, KJ/(KG)(K)    1.7068   1.6866   1.4127
 GAMMAs            1.2756   1.2798   1.3532
 SON VEL,M/SEC     1191.8   1118.6    631.9
 MACH NUMBER        0.000    1.000    4.224

 PERFORMANCE PARAMETERS

 Ae/At                      1.0000   20.000
 CSTAR, M/SEC               1591.1   1591.1
 CF                         0.7030   1.6773
 Ivac, M/SEC                1992.6   2779.3
 Isp, M/SEC                 1118.6   2668.8

 MOLE FRACTIONS

 *CO             0.31928   *CO2            0.01419   *H              0.01138
 HCN             0.00002   HCO             0.00001   *H2             0.18314
 H2O             0.06057   NH3             0.00001   *NO             0.00019
 *N2             0.40976   *O              0.00005   *OH             0.00137
 *O2             0.00001

  * THERMODYNAMIC PROPERTIES FITTED TO 20000.K

    PRODUCTS WHICH WERE CONSIDERED BUT WHOSE MOLE FRACTIONS
    WERE LESS THAN 5.000000E-06 FOR ALL ASSIGNED CONDITIONS

 *C              *CH             CH2             CH3             CH2OH          
 CH3O            CH3OH           CH3OOH          *CN             CNN            
 COOH            *C2             C2H             C2H2,acetylene  C2H2,vinylidene
 CH2CO,ketene    O(CH)2O         HO(CO)2OH       C2H3,vinyl      CH3CN          
 CH3CO,acetyl    C2H4            C2H4O,ethylen-o CH3CHO,ethanal  CH3COOH        
 OHCH2COOH       C2H5            C2H6            CH3N2CH3        C2H5OH         
 CH3OCH3         CH3O2CH3        CCN             CNC             OCCN           
 C2N2            C2O             *C3             C3H3,1-propynl  C3H3,2-propynl 
 C3H4,allene     C3H4,propyne    C3H4,cyclo-     C3H5,allyl      C3H6,propylene 
 C3H6,cyclo-     C3H6O,propylox  C3H6O,acetone   C3H6O,propanal  C3H7,n-propyl  
 C3H7,i-propyl   C3H8            C3H8O,1propanol C3H8O,2propanol CNCOCN         
 C3O2            *C4             C4H2,butadiyne  C4H4,1,3-cyclo- C4H6,butadiene 
 C4H6,1butyne    C4H6,2butyne    C4H6,cyclo-     C4H8,1-butene   C4H8,cis2-buten
 C4H8,tr2-butene C4H8,isobutene  C4H8,cyclo-     (CH3COOH)2      C4H9,n-butyl   
 C4H9,i-butyl    C4H9,s-butyl    C4H9,t-butyl    C4H10,n-butane  C4H10,isobutane
 C4N2            *C5             C5H6,1,3cyclo-  C5H8,cyclo-     C5H10,1-pentene
 C5H10,cyclo-    C5H11,pentyl    C5H11,t-pentyl  C5H12,n-pentane C5H12,i-pentane
 CH3C(CH3)2CH3   C6H2            C6H5,phenyl     C6H5O,phenoxy   C6H6           
 C6H5OH,phenol   C6H10,cyclo-    C6H12,1-hexene  C6H12,cyclo-    C6H13,n-hexyl  
 C6H14,n-hexane  C7H7,benzyl     C7H8            C7H8O,cresol-mx C7H14,1-heptene
 C7H15,n-heptyl  C7H16,n-heptane C7H16,2-methylh C8H8,styrene    C8H10,ethylbenz
 C8H16,1-octene  C8H17,n-octyl   C8H18,n-octane  C8H18,isooctane C9H19,n-nonyl  
 C10H8,naphthale C10H21,n-decyl  C12H9,o-bipheny C12H10,biphenyl HCCN           
 HCCO            HNC             HNCO            HNO             HNO2           
 HNO3            HO2             HCHO,formaldehy HCOOH           H2O2           
 (HCOOH)2        *N              NCO             *NH             NH2            
 NH2OH           NO2             NO3             NCN             N2H2           
 NH2NO2          N2H4            N2O             N2O3            N2O4           
 N2O5            N3              N3H             O3              H2O(cr)        
 H2O(L)         

 NOTE. WEIGHT FRACTION OF FUEL IN TOTAL FUELS AND OF OXIDANT IN TOTAL OXIDANTS






 POINT ITN      T            C           H           N           O 

   1    3    3027.042     -11.530      -9.330     -12.698     -19.283

 Pinf/Pt = 1.794670
   2    4    2706.434     -11.231      -9.414     -12.782     -20.272

 Pinf/Pt = 1.805033
   2    2    2703.350     -11.227      -9.415     -12.783     -20.283

 Pinf/Pt = 1.805131
   2    1    2703.321     -11.227      -9.415     -12.783     -20.283

   3   10     927.852      -1.601     -10.172     -13.544     -40.949

   3    3     908.921      -1.290     -10.209     -13.579     -41.638

 ADD  C(gr)          
   3    2     912.420      -1.397     -10.213     -13.583     -41.488

   3    2     912.776      -1.398     -10.211     -13.581     -41.477






              THEORETICAL ROCKET PERFORMANCE ASSUMING EQUILIBRIUM

           COMPOSITION DURING EXPANSION FROM INFINITE AREA COMBUSTOR

 Pin =   725.2 PSIA
 CASE =                

             REACTANT                    WT FRACTION      ENERGY      TEMP
                                          (SEE NOTE)     KJ/KG-MOL      K  
 FUEL        C4H6,butadiene               1.0000000    109988.031    298.000
 OXIDANT     N2O                          1.0000000     81594.206    298.000

 O/F=    4.00000  %FUEL= 20.000000  R,EQ.RATIO= 2.237645  PHI,EQ.RATIO= 2.237645

                 CHAMBER   THROAT     EXIT
 Pinf/P            1.0000   1.8051   260.83
 P, BAR            50.000   27.699  0.19170
 T, K             3027.04  2703.32   912.78
 RHO, KG/CU M    4.4823 0 2.7898 0 5.7702-2
 H, KJ/KG         1889.78  1267.54 -1746.50
 U, KJ/KG          774.29   274.67 -2078.72
 G, KJ/KG        -29940.7 -27158.9 -11344.7
 S, KJ/(KG)(K)    10.5154  10.5154  10.5154

 M, (1/n)          22.563   22.638   22.844
 MW, MOL WT        22.563   22.638   22.815
 (dLV/dLP)t      -1.00304 -1.00134 -1.04735
 (dLV/dLT)p        1.0563   1.0273   1.9721
 Cp, KJ/(KG)(K)    2.1063   1.9046   8.9050
 GAMMAs            1.2379   1.2534   1.1256
 SON VEL,M/SEC     1175.1   1115.6    611.5
 MACH NUMBER        0.000    1.000    4.410

 PERFORMANCE PARAMETERS

 Ae/At                      1.0000   20.000
 CSTAR, M/SEC               1606.6   1606.6
 CF                         0.6944   1.6786
 Ivac, M/SEC                2005.6   2820.0
 Isp, M/SEC                 1115.6   2696.8


 MOLE FRACTIONS

 CH4              0.00000  0.00000  0.00259
 *CO              0.31948  0.31942  0.27483
 *CO2             0.01418  0.01538  0.05873
 *H               0.01041  0.00474  0.00000
 HCN              0.00003  0.00001  0.00000
 HCO              0.00001  0.00000  0.00000
 *H2              0.18362  0.18768  0.22545
 H2O              0.06077  0.06082  0.02241
 NH3              0.00002  0.00001  0.00001
 *NO              0.00018  0.00005  0.00000
 *N2              0.40999  0.41144  0.41469
 *O               0.00004  0.00001  0.00000
 *OH              0.00126  0.00043  0.00000
 *O2              0.00001  0.00000  0.00000
 C(gr)            0.00000  0.00000  0.00128

  * THERMODYNAMIC PROPERTIES FITTED TO 20000.K

    PRODUCTS WHICH WERE CONSIDERED BUT WHOSE MOLE FRACTIONS
    WERE LESS THAN 5.000000E-06 FOR ALL ASSIGNED CONDITIONS

 *C              *CH             CH2             CH3             CH2OH          
 CH3O            CH3OH           CH3OOH          *CN             CNN            
 COOH            *C2             C2H             C2H2,acetylene  C2H2,vinylidene
 CH2CO,ketene    O(CH)2O         HO(CO)2OH       C2H3,vinyl      CH3CN          
 CH3CO,acetyl    C2H4            C2H4O,ethylen-o CH3CHO,ethanal  CH3COOH        
 OHCH2COOH       C2H5            C2H6            CH3N2CH3        C2H5OH         
 CH3OCH3         CH3O2CH3        CCN             CNC             OCCN           
 C2N2            C2O             *C3             C3H3,1-propynl  C3H3,2-propynl 
 C3H4,allene     C3H4,propyne    C3H4,cyclo-     C3H5,allyl      C3H6,propylene 
 C3H6,cyclo-     C3H6O,propylox  C3H6O,acetone   C3H6O,propanal  C3H7,n-propyl  
 C3H7,i-propyl   C3H8            C3H8O,1propanol C3H8O,2propanol CNCOCN         
 C3O2            *C4             C4H2,butadiyne  C4H4,1,3-cyclo- C4H6,butadiene 
 C4H6,1butyne    C4H6,2butyne    C4H6,cyclo-     C4H8,1-butene   C4H8,cis2-buten
 C4H8,tr2-butene C4H8,isobutene  C4H8,cyclo-     (CH3COOH)2      C4H9,n-butyl   
 C4H9,i-butyl    C4H9,s-butyl    C4H9,t-butyl    C4H10,n-butane  C4H10,isobutane
 C4N2            *C5             C5H6,1,3cyclo-  C5H8,cyclo-     C5H10,1-pentene
 C5H10,cyclo-    C5H11,pentyl    C5H11,t-pentyl  C5H12,n-pentane C5H12,i-pentane
 CH3C(CH3)2CH3   C6H2            C6H5,phenyl     C6H5O,phenoxy   C6H6           
 C6H5OH,phenol   C6H10,cyclo-    C6H12,1-hexene  C6H12,cyclo-    C6H13,n-hexyl  
 C6H14,n-hexane  C7H7,benzyl     C7H8            C7H8O,cresol-mx C7H14,1-heptene
 C7H15,n-heptyl  C7H16,n-heptane C7H16,2-methylh C8H8,styrene    C8H10,ethylbenz
 C8H16,1-octene  C8H17,n-octyl   C8H18,n-octane  C8H18,isooctane C9H19,n-nonyl  
 C10H8,naphthale C10H21,n-decyl  C12H9,o-bipheny C12H10,biphenyl HCCN           
 HCCO            HNC             HNCO            HNO             HNO2           
 HNO3            HO2             HCHO,formaldehy HCOOH           H2O2           
 (HCOOH)2        *N              NCO             *NH             NH2            
 NH2OH           NO2             NO3             NCN             N2H2           
 NH2NO2          N2H4            N2O             N2O3            N2O4           
 N2O5            N3              N3H             O3              H2O(cr)        
 H2O(L)         

 NOTE. WEIGHT FRACTION OF FUEL IN TOTAL FUELS AND OF OXIDANT IN TOTAL OXIDANTS





           THEORETICAL ROCKET PERFORMANCE ASSUMING FROZEN COMPOSITION

 Pin =   725.2 PSIA
 CASE =                

             REACTANT                    WT FRACTION      ENERGY      TEMP
                                          (SEE NOTE)     KJ/KG-MOL      K  
 FUEL        C4H6,butadiene               1.0000000    109988.031    298.000
 OXIDANT     N2O                          1.0000000     81594.206    298.000

 O/F=    4.00000  %FUEL= 20.000000  R,EQ.RATIO= 2.237645  PHI,EQ.RATIO= 2.237645

                 CHAMBER   THROAT     EXIT
 Pinf/P            1.0000   1.8203   287.47
 P, BAR            50.000   27.469  0.17393
 T, K             3027.04  2657.87   803.22
 RHO, KG/CU M    4.4823 0 2.8045 0 5.8762-2
 H, KJ/KG         1889.78  1263.17 -1678.50
 U, KJ/KG          774.29   283.73 -1974.49
 G, KJ/KG        -29940.7 -26685.3 -10124.7
 S, KJ/(KG)(K)    10.5154  10.5154  10.5154

 M, (1/n)          22.563   22.563   22.563
 MW, MOL WT        22.563   22.563   22.563
 Cp, KJ/(KG)(K)    1.7070   1.6869   1.4133
 GAMMAs            1.2753   1.2795   1.3527
 SON VEL,M/SEC     1192.7   1119.5    632.8
 MACH NUMBER        0.000    1.000    4.222

 PERFORMANCE PARAMETERS

 Ae/At                      1.0000   20.000
 CSTAR, M/SEC               1592.6   1592.6
 CF                         0.7029   1.6774
 Ivac, M/SEC                1994.4   2782.2
 Isp, M/SEC                 1119.5   2671.4

 MOLE FRACTIONS

 *CO             0.31948   *CO2            0.01418   *H              0.01041
 HCN             0.00003   HCO             0.00001   *H2             0.18362
 H2O             0.06077   NH3             0.00002   *NO             0.00018
 *N2             0.40999   *O              0.00004   *OH             0.00126
 *O2             0.00001

  * THERMODYNAMIC PROPERTIES FITTED TO 20000.K

    PRODUCTS WHICH WERE CONSIDERED BUT WHOSE MOLE FRACTIONS
    WERE LESS THAN 5.000000E-06 FOR ALL ASSIGNED CONDITIONS

 *C              *CH             CH2             CH3             CH2OH          
 CH3O            CH3OH           CH3OOH          *CN             CNN            
 COOH            *C2             C2H             C2H2,acetylene  C2H2,vinylidene
 CH2CO,ketene    O(CH)2O         HO(CO)2OH       C2H3,vinyl      CH3CN          
 CH3CO,acetyl    C2H4            C2H4O,ethylen-o CH3CHO,ethanal  CH3COOH        
 OHCH2COOH       C2H5            C2H6            CH3N2CH3        C2H5OH         
 CH3OCH3         CH3O2CH3        CCN             CNC             OCCN           
 C2N2            C2O             *C3             C3H3,1-propynl  C3H3,2-propynl 
 C3H4,allene     C3H4,propyne    C3H4,cyclo-     C3H5,allyl      C3H6,propylene 
 C3H6,cyclo-     C3H6O,propylox  C3H6O,acetone   C3H6O,propanal  C3H7,n-propyl  
 C3H7,i-propyl   C3H8            C3H8O,1propanol C3H8O,2propanol CNCOCN         
 C3O2            *C4             C4H2,butadiyne  C4H4,1,3-cyclo- C4H6,butadiene 
 C4H6,1butyne    C4H6,2butyne    C4H6,cyclo-     C4H8,1-butene   C4H8,cis2-buten
 C4H8,tr2-butene C4H8,isobutene  C4H8,cyclo-     (CH3COOH)2      C4H9,n-butyl   
 C4H9,i-butyl    C4H9,s-butyl    C4H9,t-butyl    C4H10,n-butane  C4H10,isobutane
 C4N2            *C5             C5H6,1,3cyclo-  C5H8,cyclo-     C5H10,1-pentene
 C5H10,cyclo-    C5H11,pentyl    C5H11,t-pentyl  C5H12,n-pentane C5H12,i-pentane
 CH3C(CH3)2CH3   C6H2            C6H5,phenyl     C6H5O,phenoxy   C6H6           
 C6H5OH,phenol   C6H10,cyclo-    C6H12,1-hexene  C6H12,cyclo-    C6H13,n-hexyl  
 C6H14,n-hexane  C7H7,benzyl     C7H8            C7H8O,cresol-mx C7H14,1-heptene
 C7H15,n-heptyl  C7H16,n-heptane C7H16,2-methylh C8H8,styrene    C8H10,ethylbenz
 C8H16,1-octene  C8H17,n-octyl   C8H18,n-octane  C8H18,isooctane C9H19,n-nonyl  
 C10H8,naphthale C10H21,n-decyl  C12H9,o-bipheny C12H10,biphenyl HCCN           
 HCCO            HNC             HNCO            HNO             HNO2           
 HNO3            HO2             HCHO,formaldehy HCOOH           H2O2           
 (HCOOH)2        *N              NCO             *NH             NH2            
 NH2OH           NO2             NO3             NCN             N2H2           
 NH2NO2          N2H4            N2O             N2O3            N2O4           
 N2O5            N3              N3H             O3              H2O(cr)        
 H2O(L)         

 NOTE. WEIGHT FRACTION OF FUEL IN TOTAL FUELS AND OF OXIDANT IN TOTAL OXIDANTS






 POINT ITN      T            C           H           N           O 

   1    3    3032.322     -11.361      -9.241     -12.610     -19.269

 Pinf/Pt = 1.795927
   2    4    2708.275     -11.055      -9.324     -12.693     -20.265

 Pinf/Pt = 1.805979
   2    2    2705.263     -11.051      -9.325     -12.693     -20.276

 Pinf/Pt = 1.806071
   2    1    2705.236     -11.051      -9.325     -12.693     -20.276

   3   10     930.839      -1.503     -10.088     -13.457     -40.830

   3    3     913.454      -1.229     -10.125     -13.491     -41.454

 ADD  C(gr)          
   3    2     919.274      -1.407     -10.131     -13.498     -41.207

   3    2     919.813      -1.408     -10.128     -13.495     -41.190






              THEORETICAL ROCKET PERFORMANCE ASSUMING EQUILIBRIUM

           COMPOSITION DURING EXPANSION FROM INFINITE AREA COMBUSTOR

 Pin =   870.2 PSIA
 CASE =                

             REACTANT                    WT FRACTION      ENERGY      TEMP
                                          (SEE NOTE)     KJ/KG-MOL      K  
 FUEL        C4H6,butadiene               1.0000000    109988.031    298.000
 OXIDANT     N2O                          1.0000000     81594.206    298.000

 O/F=    4.00000  %FUEL= 20.000000  R,EQ.RATIO= 2.237645  PHI,EQ.RATIO= 2.237645

                 CHAMBER   THROAT     EXIT
 Pinf/P            1.0000   1.8061   259.21
 P, BAR            60.000   33.221  0.23147
 T, K             3032.32  2705.24   919.81
 RHO, KG/CU M    5.3718 0 3.3443 0 6.9245-2
 H, KJ/KG         1889.78  1266.44 -1745.22
 U, KJ/KG          772.84   273.08 -2079.50
 G, KJ/KG        -29792.5 -26998.4 -11355.6
 S, KJ/(KG)(K)    10.4482  10.4482  10.4482

 M, (1/n)          22.573   22.643   22.879
 MW, MOL WT        22.573   22.643   22.826
 (dLV/dLP)t      -1.00284 -1.00124 -1.04800
 (dLV/dLT)p        1.0522   1.0251   1.9745
 Cp, KJ/(KG)(K)    2.0769   1.8876   8.8377
 GAMMAs            1.2400   1.2550   1.1265
 SON VEL,M/SEC     1176.8   1116.5    613.7
 MACH NUMBER        0.000    1.000    4.394

 PERFORMANCE PARAMETERS

 Ae/At                      1.0000   20.000
 CSTAR, M/SEC               1606.8   1606.8
 CF                         0.6949   1.6780
 Ivac, M/SEC                2006.2   2820.3
 Isp, M/SEC                 1116.5   2696.3


 MOLE FRACTIONS

 CH4              0.00000  0.00000  0.00284
 *CO              0.31962  0.31949  0.27336
 *CO2             0.01417  0.01537  0.05908
 *H               0.00966  0.00437  0.00000
 HCN              0.00003  0.00002  0.00000
 HCO              0.00001  0.00000  0.00000
 HNC              0.00001  0.00000  0.00000
 *H2              0.18399  0.18787  0.22414
 H2O              0.06092  0.06088  0.02336
 NH3              0.00002  0.00001  0.00002
 *NO              0.00017  0.00004  0.00000
 *N2              0.41017  0.41153  0.41489
 *O               0.00003  0.00001  0.00000
 *OH              0.00118  0.00040  0.00000
 C(gr)            0.00000  0.00000  0.00231

  * THERMODYNAMIC PROPERTIES FITTED TO 20000.K

    PRODUCTS WHICH WERE CONSIDERED BUT WHOSE MOLE FRACTIONS
    WERE LESS THAN 5.000000E-06 FOR ALL ASSIGNED CONDITIONS

 *C              *CH             CH2             CH3             CH2OH          
 CH3O            CH3OH           CH3OOH          *CN             CNN            
 COOH            *C2             C2H             C2H2,acetylene  C2H2,vinylidene
 CH2CO,ketene    O(CH)2O         HO(CO)2OH       C2H3,vinyl      CH3CN          
 CH3CO,acetyl    C2H4            C2H4O,ethylen-o CH3CHO,ethanal  CH3COOH        
 OHCH2COOH       C2H5            C2H6            CH3N2CH3        C2H5OH         
 CH3OCH3         CH3O2CH3        CCN             CNC             OCCN           
 C2N2            C2O             *C3             C3H3,1-propynl  C3H3,2-propynl 
 C3H4,allene     C3H4,propyne    C3H4,cyclo-     C3H5,allyl      C3H6,propylene 
 C3H6,cyclo-     C3H6O,propylox  C3H6O,acetone   C3H6O,propanal  C3H7,n-propyl  
 C3H7,i-propyl   C3H8            C3H8O,1propanol C3H8O,2propanol CNCOCN         
 C3O2            *C4             C4H2,butadiyne  C4H4,1,3-cyclo- C4H6,butadiene 
 C4H6,1butyne    C4H6,2butyne    C4H6,cyclo-     C4H8,1-butene   C4H8,cis2-buten
 C4H8,tr2-butene C4H8,isobutene  C4H8,cyclo-     (CH3COOH)2      C4H9,n-butyl   
 C4H9,i-butyl    C4H9,s-butyl    C4H9,t-butyl    C4H10,n-butane  C4H10,isobutane
 C4N2            *C5             C5H6,1,3cyclo-  C5H8,cyclo-     C5H10,1-pentene
 C5H10,cyclo-    C5H11,pentyl    C5H11,t-pentyl  C5H12,n-pentane C5H12,i-pentane
 CH3C(CH3)2CH3   C6H2            C6H5,phenyl     C6H5O,phenoxy   C6H6           
 C6H5OH,phenol   C6H10,cyclo-    C6H12,1-hexene  C6H12,cyclo-    C6H13,n-hexyl  
 C6H14,n-hexane  C7H7,benzyl     C7H8            C7H8O,cresol-mx C7H14,1-heptene
 C7H15,n-heptyl  C7H16,n-heptane C7H16,2-methylh C8H8,styrene    C8H10,ethylbenz
 C8H16,1-octene  C8H17,n-octyl   C8H18,n-octane  C8H18,isooctane C9H19,n-nonyl  
 C10H8,naphthale C10H21,n-decyl  C12H9,o-bipheny C12H10,biphenyl HCCN           
 HCCO            HNCO            HNO             HNO2            HNO3           
 HO2             HCHO,formaldehy HCOOH           H2O2            (HCOOH)2       
 *N              NCO             *NH             NH2             NH2OH          
 NO2             NO3             NCN             N2H2            NH2NO2         
 N2H4            N2O             N2O3            N2O4            N2O5           
 N3              N3H             *O2             O3              H2O(cr)        
 H2O(L)         

 NOTE. WEIGHT FRACTION OF FUEL IN TOTAL FUELS AND OF OXIDANT IN TOTAL OXIDANTS





           THEORETICAL ROCKET PERFORMANCE ASSUMING FROZEN COMPOSITION

 Pin =   870.2 PSIA
 CASE =                

             REACTANT                    WT FRACTION      ENERGY      TEMP
                                          (SEE NOTE)     KJ/KG-MOL      K  
 FUEL        C4H6,butadiene               1.0000000    109988.031    298.000
 OXIDANT     N2O                          1.0000000     81594.206    298.000

 O/F=    4.00000  %FUEL= 20.000000  R,EQ.RATIO= 2.237645  PHI,EQ.RATIO= 2.237645

                 CHAMBER   THROAT     EXIT
 Pinf/P            1.0000   1.8201   287.20
 P, BAR            60.000   32.965  0.20891
 T, K             3032.32  2662.74   805.51
 RHO, KG/CU M    5.3718 0 3.3610 0 7.0411-2
 H, KJ/KG         1889.78  1262.40 -1683.96
 U, KJ/KG          772.84   281.59 -1980.67
 G, KJ/KG        -29792.5 -26558.4 -10100.1
 S, KJ/(KG)(K)    10.4482  10.4482  10.4482

 M, (1/n)          22.573   22.573   22.573
 MW, MOL WT        22.573   22.573   22.573
 Cp, KJ/(KG)(K)    1.7072   1.6871   1.4137
 GAMMAs            1.2751   1.2793   1.3524
 SON VEL,M/SEC     1193.4   1120.2    633.4
 MACH NUMBER        0.000    1.000    4.221

 PERFORMANCE PARAMETERS

 Ae/At                      1.0000   20.000
 CSTAR, M/SEC               1593.7   1593.7
 CF                         0.7029   1.6775
 Ivac, M/SEC                1995.8   2784.5
 Isp, M/SEC                 1120.2   2673.5

 MOLE FRACTIONS

 *CO             0.31962   *CO2            0.01417   *H              0.00966
 HCN             0.00003   HCO             0.00001   HNC             0.00001
 *H2             0.18399   H2O             0.06092   NH3             0.00002
 *NO             0.00017   *N2             0.41017   *O              0.00003
 *OH             0.00118

  * THERMODYNAMIC PROPERTIES FITTED TO 20000.K

    PRODUCTS WHICH WERE CONSIDERED BUT WHOSE MOLE FRACTIONS
    WERE LESS THAN 5.000000E-06 FOR ALL ASSIGNED CONDITIONS

 *C              *CH             CH2             CH3             CH2OH          
 CH3O            CH3OH           CH3OOH          *CN             CNN            
 COOH            *C2             C2H             C2H2,acetylene  C2H2,vinylidene
 CH2CO,ketene    O(CH)2O         HO(CO)2OH       C2H3,vinyl      CH3CN          
 CH3CO,acetyl    C2H4            C2H4O,ethylen-o CH3CHO,ethanal  CH3COOH        
 OHCH2COOH       C2H5            C2H6            CH3N2CH3        C2H5OH         
 CH3OCH3         CH3O2CH3        CCN             CNC             OCCN           
 C2N2            C2O             *C3             C3H3,1-propynl  C3H3,2-propynl 
 C3H4,allene     C3H4,propyne    C3H4,cyclo-     C3H5,allyl      C3H6,propylene 
 C3H6,cyclo-     C3H6O,propylox  C3H6O,acetone   C3H6O,propanal  C3H7,n-propyl  
 C3H7,i-propyl   C3H8            C3H8O,1propanol C3H8O,2propanol CNCOCN         
 C3O2            *C4             C4H2,butadiyne  C4H4,1,3-cyclo- C4H6,butadiene 
 C4H6,1butyne    C4H6,2butyne    C4H6,cyclo-     C4H8,1-butene   C4H8,cis2-buten
 C4H8,tr2-butene C4H8,isobutene  C4H8,cyclo-     (CH3COOH)2      C4H9,n-butyl   
 C4H9,i-butyl    C4H9,s-butyl    C4H9,t-butyl    C4H10,n-butane  C4H10,isobutane
 C4N2            *C5             C5H6,1,3cyclo-  C5H8,cyclo-     C5H10,1-pentene
 C5H10,cyclo-    C5H11,pentyl    C5H11,t-pentyl  C5H12,n-pentane C5H12,i-pentane
 CH3C(CH3)2CH3   C6H2            C6H5,phenyl     C6H5O,phenoxy   C6H6           
 C6H5OH,phenol   C6H10,cyclo-    C6H12,1-hexene  C6H12,cyclo-    C6H13,n-hexyl  
 C6H14,n-hexane  C7H7,benzyl     C7H8            C7H8O,cresol-mx C7H14,1-heptene
 C7H15,n-heptyl  C7H16,n-heptane C7H16,2-methylh C8H8,styrene    C8H10,ethylbenz
 C8H16,1-octene  C8H17,n-octyl   C8H18,n-octane  C8H18,isooctane C9H19,n-nonyl  
 C10H8,naphthale C10H21,n-decyl  C12H9,o-bipheny C12H10,biphenyl HCCN           
 HCCO            HNCO            HNO             HNO2            HNO3           
 HO2             HCHO,formaldehy HCOOH           H2O2            (HCOOH)2       
 *N              NCO             *NH             NH2             NH2OH          
 NO2             NO3             NCN             N2H2            NH2NO2         
 N2H4            N2O             N2O3            N2O4            N2O5           
 N3              N3H             *O2             O3              H2O(cr)        
 H2O(L)         

 NOTE. WEIGHT FRACTION OF FUEL IN TOTAL FUELS AND OF OXIDANT IN TOTAL OXIDANTS






 POINT ITN      T            C           H           N           O 

   1    3    3036.541     -11.217      -9.165     -12.535     -19.257

 Pinf/Pt = 1.796949
   2    4    2709.714     -10.905      -9.248     -12.617     -20.260

 Pinf/Pt = 1.806733
   2    2    2706.767     -10.902      -9.249     -12.617     -20.271

 Pinf/Pt = 1.806818
   2    1    2706.741     -10.902      -9.249     -12.617     -20.271

   3   10     933.771      -1.431     -10.018     -13.384     -40.713

   3    3     917.616      -1.185     -10.054     -13.417     -41.286

 ADD  C(gr)          
   3    2     925.170      -1.416     -10.062     -13.427     -40.968

   3    2     925.848      -1.417     -10.059     -13.423     -40.948






              THEORETICAL ROCKET PERFORMANCE ASSUMING EQUILIBRIUM

           COMPOSITION DURING EXPANSION FROM INFINITE AREA COMBUSTOR

 Pin =  1015.3 PSIA
 CASE =                

             REACTANT                    WT FRACTION      ENERGY      TEMP
                                          (SEE NOTE)     KJ/KG-MOL      K  
 FUEL        C4H6,butadiene               1.0000000    109988.031    298.000
 OXIDANT     N2O                          1.0000000     81594.206    298.000

 O/F=    4.00000  %FUEL= 20.000000  R,EQ.RATIO= 2.237645  PHI,EQ.RATIO= 2.237645

                 CHAMBER   THROAT     EXIT
 Pinf/P            1.0000   1.8068   257.85
 P, BAR            70.000   38.742  0.27147
 T, K             3036.54  2706.74   925.85
 RHO, KG/CU M    6.2606 0 3.8986 0 8.0790-2
 H, KJ/KG         1889.78  1265.57 -1744.18
 U, KJ/KG          771.68   271.82 -2080.21
 G, KJ/KG        -29664.2 -26861.3 -11365.1
 S, KJ/(KG)(K)    10.3914  10.3914  10.3914

 M, (1/n)          22.581   22.647   22.909
 MW, MOL WT        22.581   22.647   22.836
 (dLV/dLP)t      -1.00268 -1.00117 -1.04856
 (dLV/dLT)p        1.0490   1.0234   1.9765
 Cp, KJ/(KG)(K)    2.0535   1.8741   8.7803
 GAMMAs            1.2416   1.2563   1.1273
 SON VEL,M/SEC     1178.3   1117.3    615.5
 MACH NUMBER        0.000    1.000    4.380

 PERFORMANCE PARAMETERS

 Ae/At                      1.0000   20.000
 CSTAR, M/SEC               1607.0   1607.0
 CF                         0.6953   1.6776
 Ivac, M/SEC                2006.7   2820.6
 Isp, M/SEC                 1117.3   2695.9


 MOLE FRACTIONS

 CH4              0.00000  0.00000  0.00305
 *CO              0.31974  0.31955  0.27211
 *CO2             0.01417  0.01537  0.05939
 *H               0.00907  0.00407  0.00000
 HCN              0.00004  0.00002  0.00000
 HCO              0.00001  0.00001  0.00000
 HNC              0.00001  0.00000  0.00000
 *H2              0.18428  0.18802  0.22298
 H2O              0.06104  0.06093  0.02419
 NH2              0.00001  0.00000  0.00000
 NH3              0.00002  0.00002  0.00002
 *NO              0.00016  0.00004  0.00000
 *N2              0.41032  0.41160  0.41507
 *O               0.00003  0.00000  0.00000
 *OH              0.00111  0.00037  0.00000
 C(gr)            0.00000  0.00000  0.00319

  * THERMODYNAMIC PROPERTIES FITTED TO 20000.K

    PRODUCTS WHICH WERE CONSIDERED BUT WHOSE MOLE FRACTIONS
    WERE LESS THAN 5.000000E-06 FOR ALL ASSIGNED CONDITIONS

 *C              *CH             CH2             CH3             CH2OH          
 CH3O            CH3OH           CH3OOH          *CN             CNN            
 COOH            *C2             C2H             C2H2,acetylene  C2H2,vinylidene
 CH2CO,ketene    O(CH)2O         HO(CO)2OH       C2H3,vinyl      CH3CN          
 CH3CO,acetyl    C2H4            C2H4O,ethylen-o CH3CHO,ethanal  CH3COOH        
 OHCH2COOH       C2H5            C2H6            CH3N2CH3        C2H5OH         
 CH3OCH3         CH3O2CH3        CCN             CNC             OCCN           
 C2N2            C2O             *C3             C3H3,1-propynl  C3H3,2-propynl 
 C3H4,allene     C3H4,propyne    C3H4,cyclo-     C3H5,allyl      C3H6,propylene 
 C3H6,cyclo-     C3H6O,propylox  C3H6O,acetone   C3H6O,propanal  C3H7,n-propyl  
 C3H7,i-propyl   C3H8            C3H8O,1propanol C3H8O,2propanol CNCOCN         
 C3O2            *C4             C4H2,butadiyne  C4H4,1,3-cyclo- C4H6,butadiene 
 C4H6,1butyne    C4H6,2butyne    C4H6,cyclo-     C4H8,1-butene   C4H8,cis2-buten
 C4H8,tr2-butene C4H8,isobutene  C4H8,cyclo-     (CH3COOH)2      C4H9,n-butyl   
 C4H9,i-butyl    C4H9,s-butyl    C4H9,t-butyl    C4H10,n-butane  C4H10,isobutane
 C4N2            *C5             C5H6,1,3cyclo-  C5H8,cyclo-     C5H10,1-pentene
 C5H10,cyclo-    C5H11,pentyl    C5H11,t-pentyl  C5H12,n-pentane C5H12,i-pentane
 CH3C(CH3)2CH3   C6H2            C6H5,phenyl     C6H5O,phenoxy   C6H6           
 C6H5OH,phenol   C6H10,cyclo-    C6H12,1-hexene  C6H12,cyclo-    C6H13,n-hexyl  
 C6H14,n-hexane  C7H7,benzyl     C7H8            C7H8O,cresol-mx C7H14,1-heptene
 C7H15,n-heptyl  C7H16,n-heptane C7H16,2-methylh C8H8,styrene    C8H10,ethylbenz
 C8H16,1-octene  C8H17,n-octyl   C8H18,n-octane  C8H18,isooctane C9H19,n-nonyl  
 C10H8,naphthale C10H21,n-decyl  C12H9,o-bipheny C12H10,biphenyl HCCN           
 HCCO            HNCO            HNO             HNO2            HNO3           
 HO2             HCHO,formaldehy HCOOH           H2O2            (HCOOH)2       
 *N              NCO             *NH             NH2OH           NO2            
 NO3             NCN             N2H2            NH2NO2          N2H4           
 N2O             N2O3            N2O4            N2O5            N3             
 N3H             *O2             O3              H2O(cr)         H2O(L)         

 NOTE. WEIGHT FRACTION OF FUEL IN TOTAL FUELS AND OF OXIDANT IN TOTAL OXIDANTS





           THEORETICAL ROCKET PERFORMANCE ASSUMING FROZEN COMPOSITION

 Pin =  1015.3 PSIA
 CASE =                

             REACTANT                    WT FRACTION      ENERGY      TEMP
                                          (SEE NOTE)     KJ/KG-MOL      K  
 FUEL        C4H6,butadiene               1.0000000    109988.031    298.000
 OXIDANT     N2O                          1.0000000     81594.206    298.000

 O/F=    4.00000  %FUEL= 20.000000  R,EQ.RATIO= 2.237645  PHI,EQ.RATIO= 2.237645

                 CHAMBER   THROAT     EXIT
 Pinf/P            1.0000   1.8201   286.98
 P, BAR            70.000   38.460  0.24392
 T, K             3036.54  2666.61   807.35
 RHO, KG/CU M    6.2606 0 3.9169 0 8.2049-2
 H, KJ/KG         1889.78  1261.76 -1688.32
 U, KJ/KG          771.68   279.88 -1985.60
 G, KJ/KG        -29664.2 -26448.2 -10077.8
 S, KJ/(KG)(K)    10.3914  10.3914  10.3914

 M, (1/n)          22.581   22.581   22.581
 MW, MOL WT        22.581   22.581   22.581
 Cp, KJ/(KG)(K)    1.7074   1.6873   1.4140
 GAMMAs            1.2750   1.2792   1.3521
 SON VEL,M/SEC     1194.0   1120.7    634.0
 MACH NUMBER        0.000    1.000    4.219

 PERFORMANCE PARAMETERS

 Ae/At                      1.0000   20.000
 CSTAR, M/SEC               1594.6   1594.6
 CF                         0.7028   1.6776
 Ivac, M/SEC                1996.8   2786.2
 Isp, M/SEC                 1120.7   2675.1

 MOLE FRACTIONS

 *CO             0.31974   *CO2            0.01417   *H              0.00907
 HCN             0.00004   HCO             0.00001   HNC             0.00001
 *H2             0.18428   H2O             0.06104   NH2             0.00001
 NH3             0.00002   *NO             0.00016   *N2             0.41032
 *O              0.00003   *OH             0.00111

  * THERMODYNAMIC PROPERTIES FITTED TO 20000.K

    PRODUCTS WHICH WERE CONSIDERED BUT WHOSE MOLE FRACTIONS
    WERE LESS THAN 5.000000E-06 FOR ALL ASSIGNED CONDITIONS

 *C              *CH             CH2             CH3             CH2OH          
 CH3O            CH3OH           CH3OOH          *CN             CNN            
 COOH            *C2             C2H             C2H2,acetylene  C2H2,vinylidene
 CH2CO,ketene    O(CH)2O         HO(CO)2OH       C2H3,vinyl      CH3CN          
 CH3CO,acetyl    C2H4            C2H4O,ethylen-o CH3CHO,ethanal  CH3COOH        
 OHCH2COOH       C2H5            C2H6            CH3N2CH3        C2H5OH         
 CH3OCH3         CH3O2CH3        CCN             CNC             OCCN           
 C2N2            C2O             *C3             C3H3,1-propynl  C3H3,2-propynl 
 C3H4,allene     C3H4,propyne    C3H4,cyclo-     C3H5,allyl      C3H6,propylene 
 C3H6,cyclo-     C3H6O,propylox  C3H6O,acetone   C3H6O,propanal  C3H7,n-propyl  
 C3H7,i-propyl   C3H8            C3H8O,1propanol C3H8O,2propanol CNCOCN         
 C3O2            *C4             C4H2,butadiyne  C4H4,1,3-cyclo- C4H6,butadiene 
 C4H6,1butyne    C4H6,2butyne    C4H6,cyclo-     C4H8,1-butene   C4H8,cis2-buten
 C4H8,tr2-butene C4H8,isobutene  C4H8,cyclo-     (CH3COOH)2      C4H9,n-butyl   
 C4H9,i-butyl    C4H9,s-butyl    C4H9,t-butyl    C4H10,n-butane  C4H10,isobutane
 C4N2            *C5             C5H6,1,3cyclo-  C5H8,cyclo-     C5H10,1-pentene
 C5H10,cyclo-    C5H11,pentyl    C5H11,t-pentyl  C5H12,n-pentane C5H12,i-pentane
 CH3C(CH3)2CH3   C6H2            C6H5,phenyl     C6H5O,phenoxy   C6H6           
 C6H5OH,phenol   C6H10,cyclo-    C6H12,1-hexene  C6H12,cyclo-    C6H13,n-hexyl  
 C6H14,n-hexane  C7H7,benzyl     C7H8            C7H8O,cresol-mx C7H14,1-heptene
 C7H15,n-heptyl  C7H16,n-heptane C7H16,2-methylh C8H8,styrene    C8H10,ethylbenz
 C8H16,1-octene  C8H17,n-octyl   C8H18,n-octane  C8H18,isooctane C9H19,n-nonyl  
 C10H8,naphthale C10H21,n-decyl  C12H9,o-bipheny C12H10,biphenyl HCCN           
 HCCO            HNCO            HNO             HNO2            HNO3           
 HO2             HCHO,formaldehy HCOOH           H2O2            (HCOOH)2       
 *N              NCO             *NH             NH2OH           NO2            
 NO3             NCN             N2H2            NH2NO2          N2H4           
 N2O             N2O3            N2O4            N2O5            N3             
 N3H             *O2             O3              H2O(cr)         H2O(L)         

 NOTE. WEIGHT FRACTION OF FUEL IN TOTAL FUELS AND OF OXIDANT IN TOTAL OXIDANTS






 POINT ITN      T            C           H           N           O 

   1    3    3040.019     -11.092      -9.100     -12.470     -19.248

 Pinf/Pt = 1.797803
   2    4    2710.879     -10.776      -9.182     -12.551     -20.256

 Pinf/Pt = 1.807352
   2    2    2707.990     -10.772      -9.183     -12.552     -20.267

 Pinf/Pt = 1.807433
   2    1    2707.965     -10.772      -9.183     -12.552     -20.267

   3    9     936.596      -1.376      -9.958     -13.321     -40.602

 ADD  C(gr)          
   3    2     938.600      -1.435      -9.960     -13.324     -40.521

   3    3     931.129      -1.424      -9.998     -13.361     -40.739

   3    2     931.139      -1.424      -9.998     -13.361     -40.738






              THEORETICAL ROCKET PERFORMANCE ASSUMING EQUILIBRIUM

           COMPOSITION DURING EXPANSION FROM INFINITE AREA COMBUSTOR

 Pin =  1160.3 PSIA
 CASE =                

             REACTANT                    WT FRACTION      ENERGY      TEMP
                                          (SEE NOTE)     KJ/KG-MOL      K  
 FUEL        C4H6,butadiene               1.0000000    109988.031    298.000
 OXIDANT     N2O                          1.0000000     81594.206    298.000

 O/F=    4.00000  %FUEL= 20.000000  R,EQ.RATIO= 2.237645  PHI,EQ.RATIO= 2.237645

                 CHAMBER   THROAT     EXIT
 Pinf/P            1.0000   1.8074   256.68
 P, BAR            80.000   44.262  0.31168
 T, K             3040.02  2707.97   931.14
 RHO, KG/CU M    7.1489 0 4.4526 0 9.2335-2
 H, KJ/KG         1889.78  1264.85 -1743.32
 U, KJ/KG          770.73   270.80 -2080.87
 G, KJ/KG        -29550.9 -26741.6 -11373.4
 S, KJ/(KG)(K)    10.3423  10.3423  10.3423

 M, (1/n)          22.587   22.650   22.936
 MW, MOL WT        22.587   22.650   22.845
 (dLV/dLP)t      -1.00255 -1.00111 -1.04905
 (dLV/dLT)p        1.0463   1.0220   1.9783
 Cp, KJ/(KG)(K)    2.0343   1.8632   8.7302
 GAMMAs            1.2431   1.2573   1.1280
 SON VEL,M/SEC     1179.4   1118.0    617.0
 MACH NUMBER        0.000    1.000    4.369

 PERFORMANCE PARAMETERS

 Ae/At                     1.00000   20.000
 CSTAR, M/SEC               1607.1   1607.1
 CF                         0.6957   1.6773
 Ivac, M/SEC                2007.1   2820.8
 Isp, M/SEC                 1118.0   2695.6


 MOLE FRACTIONS

 CH4              0.00000  0.00000  0.00326
 *CO              0.31983  0.31960  0.27102
 *CO2             0.01416  0.01536  0.05965
 *H               0.00857  0.00382  0.00000
 HCN              0.00004  0.00002  0.00000
 HCO              0.00002  0.00001  0.00000
 HNC              0.00001  0.00000  0.00000
 *H2              0.18451  0.18814  0.22194
 H2O              0.06114  0.06097  0.02493
 NH2              0.00001  0.00000  0.00000
 NH3              0.00003  0.00002  0.00002
 *NO              0.00015  0.00004  0.00000
 *N2              0.41044  0.41166  0.41523
 *O               0.00003  0.00000  0.00000
 *OH              0.00105  0.00035  0.00000
 C(gr)            0.00000  0.00000  0.00395

  * THERMODYNAMIC PROPERTIES FITTED TO 20000.K

    PRODUCTS WHICH WERE CONSIDERED BUT WHOSE MOLE FRACTIONS
    WERE LESS THAN 5.000000E-06 FOR ALL ASSIGNED CONDITIONS

 *C              *CH             CH2             CH3             CH2OH          
 CH3O            CH3OH           CH3OOH          *CN             CNN            
 COOH            *C2             C2H             C2H2,acetylene  C2H2,vinylidene
 CH2CO,ketene    O(CH)2O         HO(CO)2OH       C2H3,vinyl      CH3CN          
 CH3CO,acetyl    C2H4            C2H4O,ethylen-o CH3CHO,ethanal  CH3COOH        
 OHCH2COOH       C2H5            C2H6            CH3N2CH3        C2H5OH         
 CH3OCH3         CH3O2CH3        CCN             CNC             OCCN           
 C2N2            C2O             *C3             C3H3,1-propynl  C3H3,2-propynl 
 C3H4,allene     C3H4,propyne    C3H4,cyclo-     C3H5,allyl      C3H6,propylene 
 C3H6,cyclo-     C3H6O,propylox  C3H6O,acetone   C3H6O,propanal  C3H7,n-propyl  
 C3H7,i-propyl   C3H8            C3H8O,1propanol C3H8O,2propanol CNCOCN         
 C3O2            *C4             C4H2,butadiyne  C4H4,1,3-cyclo- C4H6,butadiene 
 C4H6,1butyne    C4H6,2butyne    C4H6,cyclo-     C4H8,1-butene   C4H8,cis2-buten
 C4H8,tr2-butene C4H8,isobutene  C4H8,cyclo-     (CH3COOH)2      C4H9,n-butyl   
 C4H9,i-butyl    C4H9,s-butyl    C4H9,t-butyl    C4H10,n-butane  C4H10,isobutane
 C4N2            *C5             C5H6,1,3cyclo-  C5H8,cyclo-     C5H10,1-pentene
[...]
 N3H             O3              C(gr)           H2O(cr)         H2O(L)         

 NOTE. WEIGHT FRACTION OF FUEL IN TOTAL FUELS AND OF OXIDANT IN TOTAL OXIDANTS






 POINT ITN      T            C           H           N           O 

   1    3    3452.986     -16.989     -10.845     -12.621     -14.821

 Pinf/Pt = 1.741324
   2    4    3251.995     -17.545     -11.107     -12.776     -14.992

 Pinf/Pt = 1.738881
   2    2    3252.485     -17.544     -11.107     -12.775     -14.992

   3    6    1710.406     -28.471     -15.208     -14.001     -16.381

   3    3    1758.442     -27.763     -14.973     -13.973     -16.356

   3    1    1758.463     -27.763     -14.973     -13.973     -16.356






              THEORETICAL ROCKET PERFORMANCE ASSUMING EQUILIBRIUM

           COMPOSITION DURING EXPANSION FROM INFINITE AREA COMBUSTOR

 Pin =  1015.3 PSIA
 CASE =                

             REACTANT                    WT FRACTION      ENERGY      TEMP
                                          (SEE NOTE)     KJ/KG-MOL      K  
 FUEL        C4H6,butadiene               1.0000000    109988.031    298.000
 OXIDANT     N2O                          1.0000000     81594.206    298.000

 O/F=   10.00000  %FUEL=  9.090909  R,EQ.RATIO= 0.895058  PHI,EQ.RATIO= 0.895058

                 CHAMBER   THROAT     EXIT
 Pinf/P            1.0000   1.7389   180.28
 P, BAR            70.000   40.256  0.38829
 T, K             3452.99  3252.49  1758.46
 RHO, KG/CU M    6.8092 0 4.2064 0 7.9244-2
 H, KJ/KG         1870.20  1321.40 -1995.65
 U, KJ/KG          842.18   364.39 -2485.65
 G, KJ/KG        -30176.1 -28864.1 -18315.5
 S, KJ/(KG)(K)     9.2807   9.2807   9.2807

 M, (1/n)          27.927   28.258   29.838
 MW, MOL WT        27.927   28.258   29.838
 (dLV/dLP)t      -1.02062 -1.01782 -1.00012
 (dLV/dLT)p        1.3885   1.3587   1.0046
 Cp, KJ/(KG)(K)    3.7898   3.7229   1.4893
 GAMMAs            1.1505   1.1469   1.2326
 SON VEL,M/SEC     1087.6   1047.7    777.2
 MACH NUMBER        0.000    1.000    3.578

 PERFORMANCE PARAMETERS

 Ae/At                      1.0000   20.000
 CSTAR, M/SEC               1588.4   1588.4
 CF                         0.6596   1.7505
 Ivac, M/SEC                1961.1   2956.8
 Isp, M/SEC                 1047.7   2780.6


 MOLE FRACTIONS

 *CO              0.08085  0.06863  0.00024
 *CO2             0.10689  0.12134  0.20036
 *H               0.00641  0.00469  0.00000
 HNO              0.00001  0.00001  0.00000
 HO2              0.00009  0.00006  0.00000
 *H2              0.01019  0.00845  0.00005
 H2O              0.11064  0.11769  0.15010
 H2O2             0.00001  0.00000  0.00000
 *N               0.00002  0.00001  0.00000
 *NO              0.03095  0.02532  0.00124
 NO2              0.00005  0.00004  0.00000
 *N2              0.56131  0.57097  0.61570
 N2O              0.00001  0.00001  0.00000
 *O               0.01141  0.00854  0.00002
 *OH              0.03342  0.02792  0.00059
 *O2              0.04772  0.04634  0.03170

  * THERMODYNAMIC PROPERTIES FITTED TO 20000.K

    PRODUCTS WHICH WERE CONSIDERED BUT WHOSE MOLE FRACTIONS
    WERE LESS THAN 5.000000E-06 FOR ALL ASSIGNED CONDITIONS

 *C              *CH             CH2             CH3             CH2OH          
 CH3O            CH4             CH3OH           CH3OOH          *CN            
 CNN             COOH            *C2             C2H             C2H2,acetylene 
 C2H2,vinylidene CH2CO,ketene    O(CH)2O         HO(CO)2OH       C2H3,vinyl     
 CH3CN           CH3CO,acetyl    C2H4            C2H4O,ethylen-o CH3CHO,ethanal 
 CH3COOH         OHCH2COOH       C2H5            C2H6            CH3N2CH3       
 C2H5OH          CH3OCH3         CH3O2CH3        CCN             CNC            
 OCCN            C2N2            C2O             *C3             C3H3,1-propynl 
 C3H3,2-propynl  C3H4,allene     C3H4,propyne    C3H4,cyclo-     C3H5,allyl     
 C3H6,propylene  C3H6,cyclo-     C3H6O,propylox  C3H6O,acetone   C3H6O,propanal 
 C3H7,n-propyl   C3H7,i-propyl   C3H8            C3H8O,1propanol C3H8O,2propanol
 CNCOCN          C3O2            *C4             C4H2,butadiyne  C4H4,1,3-cyclo-
 C4H6,butadiene  C4H6,1butyne    C4H6,2butyne    C4H6,cyclo-     C4H8,1-butene  
 C4H8,cis2-buten C4H8,tr2-butene C4H8,isobutene  C4H8,cyclo-     (CH3COOH)2     
 C4H9,n-butyl    C4H9,i-butyl    C4H9,s-butyl    C4H9,t-butyl    C4H10,n-butane 
 C4H10,isobutane C4N2            *C5             C5H6,1,3cyclo-  C5H8,cyclo-    
 C5H10,1-pentene C5H10,cyclo-    C5H11,pentyl    C5H11,t-pentyl  C5H12,n-pentane
 C5H12,i-pentane CH3C(CH3)2CH3   C6H2            C6H5,phenyl     C6H5O,phenoxy  
 C6H6            C6H5OH,phenol   C6H10,cyclo-    C6H12,1-hexene  C6H12,cyclo-   
 C6H13,n-hexyl   C6H14,n-hexane  C7H7,benzyl     C7H8            C7H8O,cresol-mx
 C7H14,1-heptene C7H15,n-heptyl  C7H16,n-heptane C7H16,2-methylh C8H8,styrene   
 C8H10,ethylbenz C8H16,1-octene  C8H17,n-octyl   C8H18,n-octane  C8H18,isooctane
 C9H19,n-nonyl   C10H8,naphthale C10H21,n-decyl  C12H9,o-bipheny C12H10,biphenyl
 HCN             HCO             HCCN            HCCO            HNC            
 HNCO            HNO2            HNO3            HCHO,formaldehy HCOOH          
 (HCOOH)2        NCO             *NH             NH2             NH3            
 NH2OH           NO3             NCN             N2H2            NH2NO2         
 N2H4            N2O3            N2O4            N2O5            N3             
 N3H             O3              C(gr)           H2O(cr)         H2O(L)         

 NOTE. WEIGHT FRACTION OF FUEL IN TOTAL FUELS AND OF OXIDANT IN TOTAL OXIDANTS





           THEORETICAL ROCKET PERFORMANCE ASSUMING FROZEN COMPOSITION

 Pin =  1015.3 PSIA
 CASE =                

             REACTANT                    WT FRACTION      ENERGY      TEMP
                                          (SEE NOTE)     KJ/KG-MOL      K  
 FUEL        C4H6,butadiene               1.0000000    109988.031    298.000
 OXIDANT     N2O                          1.0000000     81594.206    298.000

 O/F=   10.00000  %FUEL=  9.090909  R,EQ.RATIO= 0.895058  PHI,EQ.RATIO= 0.895058

                 CHAMBER   THROAT     EXIT
 Pinf/P            1.0000   1.8008   248.28
 P, BAR            70.000   38.871  0.28193
 T, K             3452.99  3073.94  1089.71
 RHO, KG/CU M    6.8092 0 4.2474 0 8.6902-2
 H, KJ/KG         1870.20  1299.24 -1539.44
 U, KJ/KG          842.18   384.08 -1863.86
 G, KJ/KG        -30176.1 -27229.2 -11652.8
 S, KJ/(KG)(K)     9.2807   9.2807   9.2807

 M, (1/n)          27.927   27.927   27.927
 MW, MOL WT        27.927   27.927   27.927
 Cp, KJ/(KG)(K)    1.5127   1.4994   1.3048
 GAMMAs            1.2450   1.2478   1.2956
 SON VEL,M/SEC     1131.3   1068.6    648.3
 MACH NUMBER        0.000    1.000    4.028

 PERFORMANCE PARAMETERS

 Ae/At                      1.0000   20.000
 CSTAR, M/SEC               1542.3   1542.3
 CF                         0.6929   1.6932
 Ivac, M/SEC                1925.0   2735.6
 Isp, M/SEC                 1068.6   2611.4

 MOLE FRACTIONS

 *CO             0.08085   *CO2            0.10689   *H              0.00641
 HNO             0.00001   HO2             0.00009   *H2             0.01019
 H2O             0.11064   H2O2            0.00001   *N              0.00002
 *NO             0.03095   NO2             0.00005   *N2             0.56131
 N2O             0.00001   *O              0.01141   *OH             0.03342
 *O2             0.04772

  * THERMODYNAMIC PROPERTIES FITTED TO 20000.K

    PRODUCTS WHICH WERE CONSIDERED BUT WHOSE MOLE FRACTIONS
    WERE LESS THAN 5.000000E-06 FOR ALL ASSIGNED CONDITIONS

 *C              *CH             CH2             CH3             CH2OH          
 CH3O            CH4             CH3OH           CH3OOH          *CN            
 CNN             COOH            *C2             C2H             C2H2,acetylene 
 C2H2,vinylidene CH2CO,ketene    O(CH)2O         HO(CO)2OH       C2H3,vinyl     
 CH3CN           CH3CO,acetyl    C2H4            C2H4O,ethylen-o CH3CHO,ethanal 
 CH3COOH         OHCH2COOH       C2H5            C2H6            CH3N2CH3       
 C2H5OH          CH3OCH3         CH3O2CH3        CCN             CNC            
 OCCN            C2N2            C2O             *C3             C3H3,1-propynl 
 C3H3,2-propynl  C3H4,allene     C3H4,propyne    C3H4,cyclo-     C3H5,allyl     
 C3H6,propylene  C3H6,cyclo-     C3H6O,propylox  C3H6O,acetone   C3H6O,propanal 
 C3H7,n-propyl   C3H7,i-propyl   C3H8            C3H8O,1propanol C3H8O,2propanol
 CNCOCN          C3O2            *C4             C4H2,butadiyne  C4H4,1,3-cyclo-
 C4H6,butadiene  C4H6,1butyne    C4H6,2butyne    C4H6,cyclo-     C4H8,1-butene  
 C4H8,cis2-buten C4H8,tr2-butene C4H8,isobutene  C4H8,cyclo-     (CH3COOH)2     
 C4H9,n-butyl    C4H9,i-butyl    C4H9,s-butyl    C4H9,t-butyl    C4H10,n-butane 
 C4H10,isobutane C4N2            *C5             C5H6,1,3cyclo-  C5H8,cyclo-    
 C5H10,1-pentene C5H10,cyclo-    C5H11,pentyl    C5H11,t-pentyl  C5H12,n-pentane
 C5H12,i-pentane CH3C(CH3)2CH3   C6H2            C6H5,phenyl     C6H5O,phenoxy  
 C6H6            C6H5OH,phenol   C6H10,cyclo-    C6H12,1-hexene  C6H12,cyclo-   
 C6H13,n-hexyl   C6H14,n-hexane  C7H7,benzyl     C7H8            C7H8O,cresol-mx
 C7H14,1-heptene C7H15,n-heptyl  C7H16,n-heptane C7H16,2-methylh C8H8,styrene   
 C8H10,ethylbenz C8H16,1-octene  C8H17,n-octyl   C8H18,n-octane  C8H18,isooctane
 C9H19,n-nonyl   C10H8,naphthale C10H21,n-decyl  C12H9,o-bipheny C12H10,biphenyl
 HCN             HCO             HCCN            HCCO            HNC            
 HNCO            HNO2            HNO3            HCHO,formaldehy HCOOH          
 (HCOOH)2        NCO             *NH             NH2             NH3            
 NH2OH           NO3             NCN             N2H2            NH2NO2         
 N2H4            N2O3            N2O4            N2O5            N3             
 N3H             O3              C(gr)           H2O(cr)         H2O(L)         

 NOTE. WEIGHT FRACTION OF FUEL IN TOTAL FUELS AND OF OXIDANT IN TOTAL OXIDANTS






 POINT ITN      T            C           H           N           O 

   1    3    3467.037     -16.921     -10.796     -12.561     -14.767

 Pinf/Pt = 1.741767
   2    4    3263.780     -17.480     -11.059     -12.715     -14.938

 Pinf/Pt = 1.739350
   2    2    3264.270     -17.479     -11.058     -12.715     -14.938

   3    6    1707.347     -28.517     -15.188     -13.932     -16.311

   3    3    1754.153     -27.824     -14.958     -13.905     -16.288

   3    1    1754.174     -27.824     -14.958     -13.905     -16.288






              THEORETICAL ROCKET PERFORMANCE ASSUMING EQUILIBRIUM

           COMPOSITION DURING EXPANSION FROM INFINITE AREA COMBUSTOR

 Pin =  1160.3 PSIA
 CASE =                

             REACTANT                    WT FRACTION      ENERGY      TEMP
                                          (SEE NOTE)     KJ/KG-MOL      K  
 FUEL        C4H6,butadiene               1.0000000    109988.031    298.000
 OXIDANT     N2O                          1.0000000     81594.206    298.000

 O/F=   10.00000  %FUEL=  9.090909  R,EQ.RATIO= 0.895058  PHI,EQ.RATIO= 0.895058

                 CHAMBER   THROAT     EXIT
 Pinf/P            1.0000   1.7393   181.10
 P, BAR            80.000   45.994  0.44176
 T, K             3467.04  3264.27  1754.17
 RHO, KG/CU M    7.7595 0 4.7938 0 9.0377-2
 H, KJ/KG         1870.20  1319.63 -2002.31
 U, KJ/KG          839.20   360.18 -2491.10
 G, KJ/KG        -30168.7 -28845.5 -18212.7
 S, KJ/(KG)(K)     9.2410   9.2410   9.2410

 M, (1/n)          27.960   28.288   29.839
 MW, MOL WT        27.960   28.288   29.839
 (dLV/dLP)t      -1.02028 -1.01751 -1.00011
 (dLV/dLT)p        1.3811   1.3515   1.0042
 Cp, KJ/(KG)(K)    3.7401   3.6731   1.4845
 GAMMAs            1.1513   1.1477   1.2333
 SON VEL,M/SEC     1089.5   1049.3    776.4
 MACH NUMBER        0.000    1.000    3.584

 PERFORMANCE PARAMETERS

 Ae/At                     1.00000   20.000
 CSTAR, M/SEC               1590.3   1590.3
 CF                         0.6598   1.7499
 Ivac, M/SEC                1963.7   2958.6
 Isp, M/SEC                 1049.3   2783.0


 MOLE FRACTIONS

 *CO              0.07986  0.06760  0.00021
 *CO2             0.10810  0.12256  0.20039
 *H               0.00613  0.00447  0.00000
 HNO              0.00001  0.00001  0.00000
 HNO2             0.00001  0.00000  0.00000
 HO2              0.00009  0.00006  0.00000
 *H2              0.00999  0.00826  0.00004
 H2O              0.11131  0.11830  0.15012
 H2O2             0.00001  0.00000  0.00000
 *N               0.00002  0.00001  0.00000
 *NO              0.03120  0.02551  0.00122
 NO2              0.00006  0.00004  0.00000
 *N2              0.56185  0.57150  0.61572
 N2O              0.00001  0.00001  0.00000
 *O               0.01101  0.00822  0.00002
 *OH              0.03307  0.02758  0.00056
 *O2              0.04725  0.04585  0.03171

  * THERMODYNAMIC PROPERTIES FITTED TO 20000.K

    PRODUCTS WHICH WERE CONSIDERED BUT WHOSE MOLE FRACTIONS
    WERE LESS THAN 5.000000E-06 FOR ALL ASSIGNED CONDITIONS

 *C              *CH             CH2             CH3             CH2OH          
 CH3O            CH4             CH3OH           CH3OOH          *CN            
 CNN             COOH            *C2             C2H             C2H2,acetylene 
 C2H2,vinylidene CH2CO,ketene    O(CH)2O         HO(CO)2OH       C2H3,vinyl     
 CH3CN           CH3CO,acetyl    C2H4            C2H4O,ethylen-o CH3CHO,ethanal 
 CH3COOH         OHCH2COOH       C2H5            C2H6            CH3N2CH3       
 C2H5OH          CH3OCH3         CH3O2CH3        CCN             CNC            
 OCCN            C2N2            C2O             *C3             C3H3,1-propynl 
 C3H3,2-propynl  C3H4,allene     C3H4,propyne    C3H4,cyclo-     C3H5,allyl     
 C3H6,propylene  C3H6,cyclo-     C3H6O,propylox  C3H6O,acetone   C3H6O,propanal 
 C3H7,n-propyl   C3H7,i-propyl   C3H8            C3H8O,1propanol C3H8O,2propanol
 CNCOCN          C3O2            *C4             C4H2,butadiyne  C4H4,1,3-cyclo-
 C4H6,butadiene  C4H6,1butyne    C4H6,2butyne    C4H6,cyclo-     C4H8,1-butene  
 C4H8,cis2-buten C4H8,tr2-butene C4H8,isobutene  C4H8,cyclo-     (CH3COOH)2     
 C4H9,n-butyl    C4H9,i-butyl    C4H9,s-butyl    C4H9,t-butyl    C4H10,n-butane 
 C4H10,isobutane C4N2            *C5             C5H6,1,3cyclo-  C5H8,cyclo-    
 C5H10,1-pentene C5H10,cyclo-    C5H11,pentyl    C5H11,t-pentyl  C5H12,n-pentane
 C5H12,i-pentane CH3C(CH3)2CH3   C6H2            C6H5,phenyl     C6H5O,phenoxy  
 C6H6            C6H5OH,phenol   C6H10,cyclo-    C6H12,1-hexene  C6H12,cyclo-   
 C6H13,n-hexyl   C6H14,n-hexane  C7H7,benzyl     C7H8            C7H8O,cresol-mx
 C7H14,1-heptene C7H15,n-heptyl  C7H16,n-heptane C7H16,2-methylh C8H8,styrene   
 C8H10,ethylbenz C8H16,1-octene  C8H17,n-octyl   C8H18,n-octane  C8H18,isooctane
 C9H19,n-nonyl   C10H8,naphthale C10H21,n-decyl  C12H9,o-bipheny C12H10,biphenyl
 HCN             HCO             HCCN            HCCO            HNC            
 HNCO            HNO3            HCHO,formaldehy HCOOH           (HCOOH)2       
 NCO             *NH             NH2             NH3             NH2OH          
 NO3             NCN             N2H2            NH2NO2          N2H4           
 N2O3            N2O4            N2O5            N3              N3H            
 O3              C(gr)           H2O(cr)         H2O(L)         

 NOTE. WEIGHT FRACTION OF FUEL IN TOTAL FUELS AND OF OXIDANT IN TOTAL OXIDANTS





           THEORETICAL ROCKET PERFORMANCE ASSUMING FROZEN COMPOSITION

 Pin =  1160.3 PSIA
 CASE =                

             REACTANT                    WT FRACTION      ENERGY      TEMP
                                          (SEE NOTE)     KJ/KG-MOL      K  
 FUEL        C4H6,butadiene               1.0000000    109988.031    298.000
 OXIDANT     N2O                          1.0000000     81594.206    298.000

 O/F=   10.00000  %FUEL=  9.090909  R,EQ.RATIO= 0.895058  PHI,EQ.RATIO= 0.895058

                 CHAMBER   THROAT     EXIT
 Pinf/P            1.0000   1.8005   247.71
 P, BAR            80.000   44.431  0.32295
 T, K             3467.04  3087.12  1097.13
 RHO, KG/CU M    7.7595 0 4.8399 0 9.8987-2
 H, KJ/KG         1870.20  1297.69 -1551.29
 U, KJ/KG          839.20   379.67 -1877.55
 G, KJ/KG        -30168.7 -27230.4 -11689.9
 S, KJ/(KG)(K)     9.2410   9.2410   9.2410

 M, (1/n)          27.960   27.960   27.960
 MW, MOL WT        27.960   27.960   27.960
 Cp, KJ/(KG)(K)    1.5133   1.5001   1.3065
 GAMMAs            1.2446   1.2473   1.2947
 SON VEL,M/SEC     1132.8   1070.0    649.9
 MACH NUMBER        0.000    1.000    4.025

 PERFORMANCE PARAMETERS

 Ae/At                      1.0000   20.000
 CSTAR, M/SEC               1544.7   1544.7
 CF                         0.6927   1.6934
 Ivac, M/SEC                1928.0   2740.6
 Isp, M/SEC                 1070.0   2615.9

 MOLE FRACTIONS

 *CO             0.07986   *CO2            0.10810   *H              0.00613
 HNO             0.00001   HNO2            0.00001   HO2             0.00009
 *H2             0.00999   H2O             0.11131   H2O2            0.00001
 *N              0.00002   *NO             0.03120   NO2             0.00006
 *N2             0.56185   N2O             0.00001   *O              0.01101
 *OH             0.03307   *O2             0.04725

  * THERMODYNAMIC PROPERTIES FITTED TO 20000.K

    PRODUCTS WHICH WERE CONSIDERED BUT WHOSE MOLE FRACTIONS
    WERE LESS THAN 5.000000E-06 FOR ALL ASSIGNED CONDITIONS

 *C              *CH             CH2             CH3             CH2OH          
 CH3O            CH4             CH3OH           CH3OOH          *CN            
 CNN             COOH            *C2             C2H             C2H2,acetylene 
 C2H2,vinylidene CH2CO,ketene    O(CH)2O         HO(CO)2OH       C2H3,vinyl     
 CH3CN           CH3CO,acetyl    C2H4            C2H4O,ethylen-o CH3CHO,ethanal 
 CH3COOH         OHCH2COOH       C2H5            C2H6            CH3N2CH3       
 C2H5OH          CH3OCH3         CH3O2CH3        CCN             CNC            
 OCCN            C2N2            C2O             *C3             C3H3,1-propynl 
 C3H3,2-propynl  C3H4,allene     C3H4,propyne    C3H4,cyclo-     C3H5,allyl     
 C3H6,propylene  C3H6,cyclo-     C3H6O,propylox  C3H6O,acetone   C3H6O,propanal 
 C3H7,n-propyl   C3H7,i-propyl   C3H8            C3H8O,1propanol C3H8O,2propanol
 CNCOCN          C3O2            *C4             C4H2,butadiyne  C4H4,1,3-cyclo-
 C4H6,butadiene  C4H6,1butyne    C4H6,2butyne    C4H6,cyclo-     C4H8,1-butene  
 C4H8,cis2-buten C4H8,tr2-butene C4H8,isobutene  C4H8,cyclo-     (CH3COOH)2     
 C4H9,n-butyl    C4H9,i-butyl    C4H9,s-butyl    C4H9,t-butyl    C4H10,n-butane 
 C4H10,isobutane C4N2            *C5             C5H6,1,3cyclo-  C5H8,cyclo-    
 C5H10,1-pentene C5H10,cyclo-    C5H11,pentyl    C5H11,t-pentyl  C5H12,n-pentane
 C5H12,i-pentane CH3C(CH3)2CH3   C6H2            C6H5,phenyl     C6H5O,phenoxy  
 C6H6            C6H5OH,phenol   C6H10,cyclo-    C6H12,1-hexene  C6H12,cyclo-   
 C6H13,n-hexyl   C6H14,n-hexane  C7H7,benzyl     C7H8            C7H8O,cresol-mx
 C7H14,1-heptene C7H15,n-heptyl  C7H16,n-heptane C7H16,2-methylh C8H8,styrene   
 C8H10,ethylbenz C8H16,1-octene  C8H17,n-octyl   C8H18,n-octane  C8H18,isooctane
 C9H19,n-nonyl   C10H8,naphthale C10H21,n-decyl  C12H9,o-bipheny C12H10,biphenyl
 HCN             HCO             HCCN            HCCO            HNC            
 HNCO            HNO3            HCHO,formaldehy HCOOH           (HCOOH)2       
 NCO             *NH             NH2             NH3             NH2OH          
 NO3             NCN             N2H2            NH2NO2          N2H4           
 N2O3            N2O4            N2O5            N3              N3H            
 O3              C(gr)           H2O(cr)         H2O(L)         

 NOTE. WEIGHT FRACTION OF FUEL IN TOTAL FUELS AND OF OXIDANT IN TOTAL OXIDANTS



