
 *******************************************************************************

         NASA-GLENN CHEMICAL EQUILIBRIUM PROGRAM CEA2, MAY 21, 2004
                   BY  BONNIE MCBRIDE AND SANFORD GORDON
      REFS: NASA RP-1311, PART I, 1994 AND NASA RP-1311, PART II, 1996

 *******************************************************************************



 problem o/f=2,3,4,5,6,7,8,8.5,9,10.5,11,12,13,14,
     rocket equilibrium
   p,bar=30,31,32,33,34,35,36,37
 react
     fuel=C4H6,butadiene wt=100
     oxid=N2O wt=100
 output  transport
     plot o/f %f p t rho h g m mw cp gam pip mach aeat cf ivac isp
 end

 OPTIONS: TP=F  HP=F  SP=F  TV=F  UV=F  SV=F  DETN=F  SHOCK=F  REFL=F  INCD=F
 RKT=T  FROZ=F  EQL=T  IONS=F  SIUNIT=T  DEBUGF=F  SHKDBG=F  DETDBG=F  TRNSPT=T

 TRACE= 0.00E+00  S/R= 0.000000E+00  H/R= 0.000000E+00  U/R= 0.000000E+00

 Pc,BAR =    30.000000    31.000000    32.000000    33.000000    34.000000    35.000000    36.000000

 Pc,BAR =    37.000000

 Pc/P =

 SUBSONIC AREA RATIOS =

 SUPERSONIC AREA RATIOS =

 NFZ=  1  Mdot/Ac= 0.000000E+00  Ac/At= 0.000000E+00

    REACTANT          WT.FRAC   (ENERGY/R),K   TEMP,K  DENSITY
        EXPLODED FORMULA
 F: C4H6,butadiene   1.000000   0.000000E+00     0.00  0.0000
          C  4.00000  H  6.00000
 O: N2O              1.000000   0.000000E+00     0.00  0.0000
          N  2.00000  O  1.00000

  SPECIES BEING CONSIDERED IN THIS SYSTEM
 (CONDENSED PHASE MAY HAVE NAME LISTED SEVERAL TIMES)
  LAST thermo.inp UPDATE:    9/09/04

  g 7/97  *C               tpis79  *CH              g 4/02  CH2            
  g 4/02  CH3              g11/00  CH2OH            g 7/00  CH3O           
  g 8/99  CH4              g 7/00  CH3OH            srd 01  CH3OOH         
  g 8/99  *CN              g12/99  CNN              tpis79  *CO            
  g 9/99  *CO2             tpis91  COOH             tpis91  *C2            
  g 6/01  C2H              g 1/91  C2H2,acetylene   g 5/01  C2H2,vinylidene
  g 4/02  CH2CO,ketene     g 3/02  O(CH)2O          srd 01  HO(CO)2OH      
  g 7/01  C2H3,vinyl       g 9/00  CH3CN            g 6/96  CH3CO,acetyl   
  g 1/00  C2H4             g 8/88  C2H4O,ethylen-o  g 8/88  CH3CHO,ethanal 
  g 6/00  CH3COOH          srd 01  OHCH2COOH        g 7/00  C2H5           
  g 7/00  C2H6             g 8/88  CH3N2CH3         g 8/88  C2H5OH         
  g 7/00  CH3OCH3          srd 01  CH3O2CH3         g 7/00  CCN            
  tpis91  CNC              srd 01  OCCN             tpis79  C2N2           
  g 8/00  C2O              tpis79  *C3              n 4/98  C3H3,1-propynl 
  n 4/98  C3H3,2-propynl   g 2/00  C3H4,allene      g 1/00  C3H4,propyne   
  g 5/90  C3H4,cyclo-      g 3/01  C3H5,allyl       g 2/00  C3H6,propylene 
  g 1/00  C3H6,cyclo-      g 6/01  C3H6O,propylox   g 6/97  C3H6O,acetone  
  g 1/02  C3H6O,propanal   g 7/01  C3H7,n-propyl    g 9/85  C3H7,i-propyl  
  g 2/00  C3H8             g 2/00  C3H8O,1propanol  g 2/00  C3H8O,2propanol
  srd 01  CNCOCN           g 7/88  C3O2             g tpis  *C4            
  g 7/01  C4H2,butadiyne   g 8/00  C4H4,1,3-cyclo-  n10/92  C4H6,butadiene 
  n10/93  C4H6,1butyne     n10/93  C4H6,2butyne     g 8/00  C4H6,cyclo-    
  n 4/88  C4H8,1-butene    n 4/88  C4H8,cis2-buten  n 4/88  C4H8,tr2-butene
  n 4/88  C4H8,isobutene   g 8/00  C4H8,cyclo-      g10/00  (CH3COOH)2     
  n10/84  C4H9,n-butyl     n10/84  C4H9,i-butyl     g 1/93  C4H9,s-butyl   
  g 1/93  C4H9,t-butyl     g12/00  C4H10,n-butane   g 8/00  C4H10,isobutane
  g 6/01  C4N2             g 8/00  *C5              g 5/90  C5H6,1,3cyclo- 
  g 1/93  C5H8,cyclo-      n 4/87  C5H10,1-pentene  g 2/01  C5H10,cyclo-   
  n10/84  C5H11,pentyl     g 1/93  C5H11,t-pentyl   n10/85  C5H12,n-pentane
  n10/85  C5H12,i-pentane  n10/85  CH3C(CH3)2CH3    g 2/93  C6H2           
  g11/00  C6H5,phenyl      g 8/00  C6H5O,phenoxy    g 8/00  C6H6           
  g 8/00  C6H5OH,phenol    g 1/93  C6H10,cyclo-     n 4/87  C6H12,1-hexene 
  g 6/90  C6H12,cyclo-     n10/83  C6H13,n-hexyl    g 6/01  C6H14,n-hexane 
  g 7/01  C7H7,benzyl      g 1/93  C7H8             g12/00  C7H8O,cresol-mx
  n 4/87  C7H14,1-heptene  n10/83  C7H15,n-heptyl   n10/85  C7H16,n-heptane
  n10/85  C7H16,2-methylh  n 4/89  C8H8,styrene     n10/86  C8H10,ethylbenz
  n 4/87  C8H16,1-octene   n10/83  C8H17,n-octyl    n 4/85  C8H18,n-octane 
  n 4/85  C8H18,isooctane  n10/83  C9H19,n-nonyl    g 3/01  C10H8,naphthale
  n10/83  C10H21,n-decyl   g 8/00  C12H9,o-bipheny  g 8/00  C12H10,biphenyl
  g 6/97  *H               g 6/01  HCN              g 1/01  HCO            
  tpis89  HCCN             g 6/01  HCCO             g 6/01  HNC            
  g 7/00  HNCO             g10/01  HNO              tpis89  HNO2           
  g 5/99  HNO3             g 4/02  HO2              tpis78  *H2            
  g 5/01  HCHO,formaldehy  g 6/01  HCOOH            g 8/89  H2O            
  g 6/99  H2O2             g 6/01  (HCOOH)2         g 5/97  *N             
  g 6/01  NCO              g 4/99  *NH              g 3/01  NH2            
  tpis89  NH3              tpis89  NH2OH            tpis89  *NO            
  g 4/99  NO2              j12/64  NO3              tpis78  *N2            
  g 6/01  NCN              g 5/99  N2H2             tpis89  NH2NO2         
  g 4/99  N2H4             g 4/99  N2O              g 4/99  N2O3           
  tpis89  N2O4             g 4/99  N2O5             tpis89  N3             
  g 4/99  N3H              g 5/97  *O               g 4/02  *OH            
  tpis89  *O2              g 8/01  O3               n 4/83  C(gr)          
  n 4/83  C(gr)            n 4/83  C(gr)            g11/99  H2O(cr)        
  g 8/01  H2O(L)           g 8/01  H2O(L)         

 SPECIES WITH TRANSPORT PROPERTIES

        PURE SPECIES

  C                 CH4               CH3OH             CO              
  CO2               C2H2,acetylene  
  C2H4              C2H6              C2H5OH            C2N2            
  H                 HCN             
  H2                H2O               N                 NH3             
  NO                NO2             
  N2                N2O               N2O4              O               
  OH                O2              

     BINARY INTERACTIONS

     C               O               
     CH4             O2              
     CO              CO2             
     CO              N2              
     CO              O2              
     CO2             H2              
     CO2             H2O             
     CO2             N2              
     CO2             O2              
     H               H2              
     H               N               
     H               N2              
     H               O               
     H2              H2O             
     H2              N2              
     H2              O2              
     H2O             N2              
     H2O             O2              
     N               NO              
     N               N2              
     N               O               
     N               O2              
     NO              O               
     N2              O               
     N2              O2              
     O               O2              


 O/F =   2.000000

                       EFFECTIVE FUEL     EFFECTIVE OXIDANT        MIXTURE
 ENTHALPY                  h(2)/R              h(1)/R               h0/R
 (KG-MOL)(K)/KG        0.00000000E+00      0.00000000E+00      0.00000000E+00

 KG-FORM.WT./KG             bi(2)               bi(1)               b0i
  *C                   0.73950221E-01      0.00000000E+00      0.24650074E-01
  *H                   0.11092533E+00      0.00000000E+00      0.36975111E-01
  *N                   0.00000000E+00      0.45441326E-01      0.30294217E-01
  *O                   0.00000000E+00      0.22720663E-01      0.15147109E-01

 POINT ITN      T            C           H           N           O 

   1   20    1453.386       1.644      -8.473     -11.782     -35.093

 ADD  C(gr)          
   1    6    1392.806      -2.055      -8.023     -11.761     -31.833

 Pinf/Pt = 1.784255
   2    4    1276.091      -1.902      -8.198     -11.916     -33.218

 Pinf/Pt = 1.768131
   2    2    1277.719      -1.905      -8.195     -11.913     -33.196

 Pinf/Pt = 1.768376
   2    1    1277.694      -1.904      -8.195     -11.913     -33.196






              THEORETICAL ROCKET PERFORMANCE ASSUMING EQUILIBRIUM

           COMPOSITION DURING EXPANSION FROM INFINITE AREA COMBUSTOR

 Pin =   435.1 PSIA
 CASE =                

             REACTANT                    WT FRACTION      ENERGY      TEMP
                                          (SEE NOTE)     KJ/KG-MOL      K  
 FUEL        C4H6,butadiene               1.0000000         0.000      0.000
 OXIDANT     N2O                          1.0000000         0.000      0.000

 O/F=    2.00000  %FUEL= 33.333333  R,EQ.RATIO= 4.475290  PHI,EQ.RATIO= 4.475290

                 CHAMBER   THROAT
 Pinf/P            1.0000   1.7684
 P, BAR            30.000   16.965
 T, K             1392.81  1277.69
 RHO, KG/CU M    5.4906 0 3.4267 0
 H, KJ/KG         0.00000  -296.38
 U, KJ/KG         -546.39  -791.46
 G, KJ/KG        -13732.1 -12893.5
 S, KJ/(KG)(K)     9.8593   9.8593

 M, (1/n)          21.194   21.458
 MW, MOL WT        17.631   17.674
 (dLV/dLP)t      -1.02851 -1.03733
 (dLV/dLT)p        1.2918   1.4382
 Cp, KJ/(KG)(K)    3.1266   3.9652
 GAMMAs            1.2208   1.1973
 SON VEL,M/SEC      816.7    769.9
 MACH NUMBER        0.000    1.000

 TRANSPORT PROPERTIES (GASES ONLY)
   CONDUCTIVITY IN UNITS OF MILLIWATTS/(CM)(K)

 VISC,MILLIPOISE  0.50288  0.47627

  WITH EQUILIBRIUM REACTIONS

 Cp, KJ/(KG)(K)    3.1615   3.7965
 CONDUCTIVITY      2.7070   2.9740
 PRANDTL NUMBER    0.5873   0.6080

  WITH FROZEN REACTIONS

 Cp, KJ/(KG)(K)    1.8562   1.8313
 CONDUCTIVITY      1.7576   1.6294
 PRANDTL NUMBER    0.5311   0.5353

 PERFORMANCE PARAMETERS

 Ae/At                      1.0000
 CSTAR, M/SEC               1137.1
 CF                         0.6771
 Ivac, M/SEC                1412.9
 Isp, M/SEC                  769.9


 MOLE FRACTIONS

 CH4              0.01359  0.01492
 *CO              0.24858  0.23651
 *CO2             0.00412  0.00782
 C2H4             0.00001  0.00000
 HCN              0.00015  0.00006
 *H2              0.28807  0.28099
 H2O              0.01023  0.01556
 NH3              0.00025  0.00022
 *N2              0.26685  0.26757
 C(gr)            0.16814  0.17635

  * THERMODYNAMIC PROPERTIES FITTED TO 20000.K

    PRODUCTS WHICH WERE CONSIDERED BUT WHOSE MOLE FRACTIONS
    WERE LESS THAN 5.000000E-06 FOR ALL ASSIGNED CONDITIONS

 *C              *CH             CH2             CH3             CH2OH          
 CH3O            CH3OH           CH3OOH          *CN             CNN            
 COOH            *C2             C2H             C2H2,acetylene  C2H2,vinylidene
 CH2CO,ketene    O(CH)2O         HO(CO)2OH       C2H3,vinyl      CH3CN          
 CH3CO,acetyl    C2H4O,ethylen-o CH3CHO,ethanal  CH3COOH         OHCH2COOH      
 C2H5            C2H6            CH3N2CH3        C2H5OH          CH3OCH3        
 CH3O2CH3        CCN             CNC             OCCN            C2N2           
 C2O             *C3             C3H3,1-propynl  C3H3,2-propynl  C3H4,allene    
 C3H4,propyne    C3H4,cyclo-     C3H5,allyl      C3H6,propylene  C3H6,cyclo-    
 C3H6O,propylox  C3H6O,acetone   C3H6O,propanal  C3H7,n-propyl   C3H7,i-propyl  
 C3H8            C3H8O,1propanol C3H8O,2propanol CNCOCN          C3O2           
 *C4             C4H2,butadiyne  C4H4,1,3-cyclo- C4H6,butadiene  C4H6,1butyne   
 C4H6,2butyne    C4H6,cyclo-     C4H8,1-butene   C4H8,cis2-buten C4H8,tr2-butene
 C4H8,isobutene  C4H8,cyclo-     (CH3COOH)2      C4H9,n-butyl    C4H9,i-butyl   
 C4H9,s-butyl    C4H9,t-butyl    C4H10,n-butane  C4H10,isobutane C4N2           
 *C5             C5H6,1,3cyclo-  C5H8,cyclo-     C5H10,1-pentene C5H10,cyclo-   
 C5H11,pentyl    C5H11,t-pentyl  C5H12,n-pentane C5H12,i-pentane CH3C(CH3)2CH3  
 C6H2            C6H5,phenyl     C6H5O,phenoxy   C6H6            C6H5OH,phenol  
 C6H10,cyclo-    C6H12,1-hexene  C6H12,cyclo-    C6H13,n-hexyl   C6H14,n-hexane 
 C7H7,benzyl     C7H8            C7H8O,cresol-mx C7H14,1-heptene C7H15,n-heptyl 
 C7H16,n-heptane C7H16,2-methylh C8H8,styrene    C8H10,ethylbenz C8H16,1-octene 
 C8H17,n-octyl   C8H18,n-octane  C8H18,isooctane C9H19,n-nonyl   C10H8,naphthale
 C10H21,n-decyl  C12H9,o-bipheny C12H10,biphenyl *H              HCO            
 HCCN            HCCO            HNC             HNCO            HNO            
 HNO2            HNO3            HO2             HCHO,formaldehy HCOOH          
 H2O2            (HCOOH)2        *N              NCO             *NH            
 NH2             NH2OH           *NO             NO2             NO3            
 NCN             N2H2            NH2NO2          N2H4            N2O            
 N2O3            N2O4            N2O5            N3              N3H            
 *O              *OH             *O2             O3              H2O(cr)        
 H2O(L)         

 NOTE. WEIGHT FRACTION OF FUEL IN TOTAL FUELS AND OF OXIDANT IN TOTAL OXIDANTS






 POINT ITN      T            C           H           N           O 

   1    2    1394.486      -2.057      -8.010     -11.746     -31.791

 Pinf/Pt = 1.784018
   2    4    1277.864      -1.905      -8.185     -11.901     -33.173

 Pinf/Pt = 1.768011
   2    2    1279.479      -1.907      -8.182     -11.898     -33.151

 Pinf/Pt = 1.768253
   2    1    1279.455      -1.907      -8.182     -11.898     -33.152






              THEORETICAL ROCKET PERFORMANCE ASSUMING EQUILIBRIUM

           COMPOSITION DURING EXPANSION FROM INFINITE AREA COMBUSTOR

 Pin =   449.6 PSIA
 CASE =                

             REACTANT                    WT FRACTION      ENERGY      TEMP
                                          (SEE NOTE)     KJ/KG-MOL      K  
 FUEL        C4H6,butadiene               1.0000000         0.000      0.000
 OXIDANT     N2O                          1.0000000         0.000      0.000

 O/F=    2.00000  %FUEL= 33.333333  R,EQ.RATIO= 4.475290  PHI,EQ.RATIO= 4.475290

                 CHAMBER   THROAT
 Pinf/P            1.0000   1.7683
 P, BAR            31.000   17.531
 T, K             1394.49  1279.45
 RHO, KG/CU M    5.6701 0 3.5385 0
 H, KJ/KG         0.00000  -296.55
 U, KJ/KG         -546.73  -792.00
 G, KJ/KG        -13730.7 -12894.6
 S, KJ/(KG)(K)     9.8464   9.8464

 M, (1/n)          21.207   21.472
 MW, MOL WT        17.640   17.683
 (dLV/dLP)t      -1.02893 -1.03773
 (dLV/dLT)p        1.2956   1.4420
 Cp, KJ/(KG)(K)    3.1409   3.9789
 GAMMAs            1.2204   1.1971
 SON VEL,M/SEC      816.8    770.1
 MACH NUMBER        0.000    1.000

 TRANSPORT PROPERTIES (GASES ONLY)
   CONDUCTIVITY IN UNITS OF MILLIWATTS/(CM)(K)

 VISC,MILLIPOISE  0.50327  0.47670

  WITH EQUILIBRIUM REACTIONS

 Cp, KJ/(KG)(K)    3.1771   3.8130
 CONDUCTIVITY      2.7208   2.9892
 PRANDTL NUMBER    0.5877   0.6081

  WITH FROZEN REACTIONS

 Cp, KJ/(KG)(K)    1.8567   1.8318
 CONDUCTIVITY      1.7582   1.6302
 PRANDTL NUMBER    0.5315   0.5356

 PERFORMANCE PARAMETERS

 Ae/At                      1.0000
 CSTAR, M/SEC               1137.6
 CF                         0.6770
 Ivac, M/SEC                1413.5
 Isp, M/SEC                  770.1


 MOLE FRACTIONS

 CH4              0.01386  0.01518
 *CO              0.24844  0.23631
 *CO2             0.00418  0.00789
 C2H4             0.00001  0.00000
 HCN              0.00016  0.00006
 *H2              0.28753  0.28044
 H2O              0.01040  0.01575
 NH3              0.00026  0.00022
 *N2              0.26699  0.26771
 C(gr)            0.16818  0.17644

  * THERMODYNAMIC PROPERTIES FITTED TO 20000.K

    PRODUCTS WHICH WERE CONSIDERED BUT WHOSE MOLE FRACTIONS
    WERE LESS THAN 5.000000E-06 FOR ALL ASSIGNED CONDITIONS

 *C              *CH             CH2             CH3             CH2OH          
 CH3O            CH3OH           CH3OOH          *CN             CNN            
 COOH            *C2             C2H             C2H2,acetylene  C2H2,vinylidene
 CH2CO,ketene    O(CH)2O         HO(CO)2OH       C2H3,vinyl      CH3CN          
 CH3CO,acetyl    C2H4O,ethylen-o CH3CHO,ethanal  CH3COOH         OHCH2COOH      
 C2H5            C2H6            CH3N2CH3        C2H5OH          CH3OCH3        
 CH3O2CH3        CCN             CNC             OCCN            C2N2           
 C2O             *C3             C3H3,1-propynl  C3H3,2-propynl  C3H4,allene    
 C3H4,propyne    C3H4,cyclo-     C3H5,allyl      C3H6,propylene  C3H6,cyclo-    
 C3H6O,propylox  C3H6O,acetone   C3H6O,propanal  C3H7,n-propyl   C3H7,i-propyl  
 C3H8            C3H8O,1propanol C3H8O,2propanol CNCOCN          C3O2           
 *C4             C4H2,butadiyne  C4H4,1,3-cyclo- C4H6,butadiene  C4H6,1butyne   
 C4H6,2butyne    C4H6,cyclo-     C4H8,1-butene   C4H8,cis2-buten C4H8,tr2-butene
 C4H8,isobutene  C4H8,cyclo-     (CH3COOH)2      C4H9,n-butyl    C4H9,i-butyl   
 C4H9,s-butyl    C4H9,t-butyl    C4H10,n-butane  C4H10,isobutane C4N2           
 *C5             C5H6,1,3cyclo-  C5H8,cyclo-     C5H10,1-pentene C5H10,cyclo-   
 C5H11,pentyl    C5H11,t-pentyl  C5H12,n-pentane C5H12,i-pentane CH3C(CH3)2CH3  
 C6H2            C6H5,phenyl     C6H5O,phenoxy   C6H6            C6H5OH,phenol  
 C6H10,cyclo-    C6H12,1-hexene  C6H12,cyclo-    C6H13,n-hexyl   C6H14,n-hexane 
 C7H7,benzyl     C7H8            C7H8O,cresol-mx C7H14,1-heptene C7H15,n-heptyl 
 C7H16,n-heptane C7H16,2-methylh C8H8,styrene    C8H10,ethylbenz C8H16,1-octene 
 C8H17,n-octyl   C8H18,n-octane  C8H18,isooctane C9H19,n-nonyl   C10H8,naphthale
 C10H21,n-decyl  C12H9,o-bipheny C12H10,biphenyl *H              HCO            
 HCCN            HCCO            HNC             HNCO            HNO            
 HNO2            HNO3            HO2             HCHO,formaldehy HCOOH          
 H2O2            (HCOOH)2        *N              NCO             *NH            
 NH2             NH2OH           *NO             NO2             NO3            
 NCN             N2H2            NH2NO2          N2H4            N2O            
 N2O3            N2O4            N2O5            N3              N3H            
 *O              *OH             *O2             O3              H2O(cr)        
 H2O(L)         

 NOTE. WEIGHT FRACTION OF FUEL IN TOTAL FUELS AND OF OXIDANT IN TOTAL OXIDANTS






 POINT ITN      T            C           H           N           O 

   1    2    1396.127      -2.059      -7.996     -11.732     -31.750

 Pinf/Pt = 1.783791
   2    4    1279.590      -1.907      -8.171     -11.886     -33.129

 Pinf/Pt = 1.767898
   2    2    1281.194      -1.909      -8.169     -11.884     -33.108

 Pinf/Pt = 1.768136
   2    1    1281.170      -1.909      -8.169     -11.884     -33.108






              THEORETICAL ROCKET PERFORMANCE ASSUMING EQUILIBRIUM

           COMPOSITION DURING EXPANSION FROM INFINITE AREA COMBUSTOR

 Pin =   464.1 PSIA
 CASE =                

             REACTANT                    WT FRACTION      ENERGY      TEMP
                                          (SEE NOTE)     KJ/KG-MOL      K  
 FUEL        C4H6,butadiene               1.0000000         0.000      0.000
 OXIDANT     N2O                          1.0000000         0.000      0.000

 O/F=    2.00000  %FUEL= 33.333333  R,EQ.RATIO= 4.475290  PHI,EQ.RATIO= 4.475290

                 CHAMBER   THROAT
 Pinf/P            1.0000   1.7681
 P, BAR            32.000   18.098
 T, K             1396.13  1281.17
 RHO, KG/CU M    5.8495 0 3.6502 0
 H, KJ/KG         0.00000  -296.71
 U, KJ/KG         -547.06  -792.52
 G, KJ/KG        -13729.5 -12895.7
 S, KJ/(KG)(K)     9.8340   9.8340

 M, (1/n)          21.219   21.485
 MW, MOL WT        17.650   17.692
 (dLV/dLP)t      -1.02934 -1.03812
 (dLV/dLT)p        1.2993   1.4457
 Cp, KJ/(KG)(K)    3.1546   3.9921
 GAMMAs            1.2200   1.1969
 SON VEL,M/SEC      817.0    770.3
 MACH NUMBER        0.000    1.000

 TRANSPORT PROPERTIES (GASES ONLY)
   CONDUCTIVITY IN UNITS OF MILLIWATTS/(CM)(K)

 VISC,MILLIPOISE  0.50366  0.47713

  WITH EQUILIBRIUM REACTIONS

 Cp, KJ/(KG)(K)    3.1920   3.8288
 CONDUCTIVITY      2.7342   3.0039
 PRANDTL NUMBER    0.5880   0.6082

  WITH FROZEN REACTIONS

 Cp, KJ/(KG)(K)    1.8571   1.8323
 CONDUCTIVITY      1.7588   1.6310
 PRANDTL NUMBER    0.5318   0.5360

 PERFORMANCE PARAMETERS

 Ae/At                      1.0000
 CSTAR, M/SEC               1138.0
 CF                         0.6769
 Ivac, M/SEC                1414.0
 Isp, M/SEC                  770.3


 MOLE FRACTIONS

 CH4              0.01412  0.01543
 *CO              0.24830  0.23610
 *CO2             0.00424  0.00796
 C2H4             0.00001  0.00000
 HCN              0.00016  0.00006
 *H2              0.28699  0.27989
 H2O              0.01056  0.01594
 NH3              0.00027  0.00023
 *N2              0.26713  0.26784
 C(gr)            0.16822  0.17654

  * THERMODYNAMIC PROPERTIES FITTED TO 20000.K

    PRODUCTS WHICH WERE CONSIDERED BUT WHOSE MOLE FRACTIONS
    WERE LESS THAN 5.000000E-06 FOR ALL ASSIGNED CONDITIONS

 *C              *CH             CH2             CH3             CH2OH          
 CH3O            CH3OH           CH3OOH          *CN             CNN            
 COOH            *C2             C2H             C2H2,acetylene  C2H2,vinylidene
 CH2CO,ketene    O(CH)2O         HO(CO)2OH       C2H3,vinyl      CH3CN          
 CH3CO,acetyl    C2H4O,ethylen-o CH3CHO,ethanal  CH3COOH         OHCH2COOH      
 C2H5            C2H6            CH3N2CH3        C2H5OH          CH3OCH3        
 CH3O2CH3        CCN             CNC             OCCN            C2N2           
 C2O             *C3             C3H3,1-propynl  C3H3,2-propynl  C3H4,allene    
 C3H4,propyne    C3H4,cyclo-     C3H5,allyl      C3H6,propylene  C3H6,cyclo-    
 C3H6O,propylox  C3H6O,acetone   C3H6O,propanal  C3H7,n-propyl   C3H7,i-propyl  
 C3H8            C3H8O,1propanol C3H8O,2propanol CNCOCN          C3O2           
 *C4             C4H2,butadiyne  C4H4,1,3-cyclo- C4H6,butadiene  C4H6,1butyne   
 C4H6,2butyne    C4H6,cyclo-     C4H8,1-butene   C4H8,cis2-buten C4H8,tr2-butene
 C4H8,isobutene  C4H8,cyclo-     (CH3COOH)2      C4H9,n-butyl    C4H9,i-butyl   
 C4H9,s-butyl    C4H9,t-butyl    C4H10,n-butane  C4H10,isobutane C4N2           
 *C5             C5H6,1,3cyclo-  C5H8,cyclo-     C5H10,1-pentene C5H10,cyclo-   
 C5H11,pentyl    C5H11,t-pentyl  C5H12,n-pentane C5H12,i-pentane CH3C(CH3)2CH3  
 C6H2            C6H5,phenyl     C6H5O,phenoxy   C6H6            C6H5OH,phenol  
 C6H10,cyclo-    C6H12,1-hexene  C6H12,cyclo-    C6H13,n-hexyl   C6H14,n-hexane 
 C7H7,benzyl     C7H8            C7H8O,cresol-mx C7H14,1-heptene C7H15,n-heptyl 
 C7H16,n-heptane C7H16,2-methylh C8H8,styrene    C8H10,ethylbenz C8H16,1-octene 
 C8H17,n-octyl   C8H18,n-octane  C8H18,isooctane C9H19,n-nonyl   C10H8,naphthale
 C10H21,n-decyl  C12H9,o-bipheny C12H10,biphenyl *H              HCO            
 HCCN            HCCO            HNC             HNCO            HNO            
 HNO2            HNO3            HO2             HCHO,formaldehy HCOOH          
 H2O2            (HCOOH)2        *N              NCO             *NH            
 NH2             NH2OH           *NO             NO2             NO3            
 NCN             N2H2            NH2NO2          N2H4            N2O            
 N2O3            N2O4            N2O5            N3              N3H            
 *O              *OH             *O2             O3              H2O(cr)        
 H2O(L)         

 NOTE. WEIGHT FRACTION OF FUEL IN TOTAL FUELS AND OF OXIDANT IN TOTAL OXIDANTS






 POINT ITN      T            C           H           N           O 

   1    2    1397.731      -2.061      -7.983     -11.718     -31.710

 Pinf/Pt = 1.783573
   2    4    1281.272      -1.909      -8.159     -11.873     -33.087

 Pinf/Pt = 1.767790
   2    2    1282.865      -1.911      -8.156     -11.870     -33.066

 Pinf/Pt = 1.768024
   2    1    1282.841      -1.911      -8.156     -11.870     -33.066






              THEORETICAL ROCKET PERFORMANCE ASSUMING EQUILIBRIUM

           COMPOSITION DURING EXPANSION FROM INFINITE AREA COMBUSTOR

 Pin =   478.6 PSIA
 CASE =                

             REACTANT                    WT FRACTION      ENERGY      TEMP
                                          (SEE NOTE)     KJ/KG-MOL      K  
 FUEL        C4H6,butadiene               1.0000000         0.000      0.000
 OXIDANT     N2O                          1.0000000         0.000      0.000

 O/F=    2.00000  %FUEL= 33.333333  R,EQ.RATIO= 4.475290  PHI,EQ.RATIO= 4.475290

                 CHAMBER   THROAT
 Pinf/P            1.0000   1.7680
 P, BAR            33.000   18.665
 T, K             1397.73  1282.84
 RHO, KG/CU M    6.0287 0 3.7619 0
 H, KJ/KG         0.00000  -296.87
 U, KJ/KG         -547.38  -793.03
 G, KJ/KG        -13728.4 -12896.8
 S, KJ/(KG)(K)     9.8219   9.8219

 M, (1/n)          21.231   21.497
 MW, MOL WT        17.659   17.701
 (dLV/dLP)t      -1.02973 -1.03849
 (dLV/dLT)p        1.3029   1.4493
 Cp, KJ/(KG)(K)    3.1679   4.0048
 GAMMAs            1.2197   1.1967
 SON VEL,M/SEC      817.1    770.5
 MACH NUMBER        0.000    1.000

 TRANSPORT PROPERTIES (GASES ONLY)
   CONDUCTIVITY IN UNITS OF MILLIWATTS/(CM)(K)

 VISC,MILLIPOISE  0.50404  0.47754

  WITH EQUILIBRIUM REACTIONS

 Cp, KJ/(KG)(K)    3.2065   3.8440
 CONDUCTIVITY      2.7472   3.0182
 PRANDTL NUMBER    0.5883   0.6082

  WITH FROZEN REACTIONS

 Cp, KJ/(KG)(K)    1.8576   1.8328
 CONDUCTIVITY      1.7594   1.6317
 PRANDTL NUMBER    0.5322   0.5364

 PERFORMANCE PARAMETERS

 Ae/At                     1.00000
 CSTAR, M/SEC               1138.4
 CF                         0.6769
 Ivac, M/SEC                1414.5
 Isp, M/SEC                  770.6


 MOLE FRACTIONS

 CH4              0.01438  0.01568
 *CO              0.24816  0.23591
 *CO2             0.00430  0.00803
 C2H4             0.00001  0.00000
 HCN              0.00016  0.00006
 *H2              0.28647  0.27936
 H2O              0.01072  0.01613
 NH3              0.00027  0.00023
 *N2              0.26726  0.26797
 C(gr)            0.16826  0.17662

  * THERMODYNAMIC PROPERTIES FITTED TO 20000.K

    PRODUCTS WHICH WERE CONSIDERED BUT WHOSE MOLE FRACTIONS
    WERE LESS THAN 5.000000E-06 FOR ALL ASSIGNED CONDITIONS

 *C              *CH             CH2             CH3             CH2OH          
 CH3O            CH3OH           CH3OOH          *CN             CNN            
 COOH            *C2             C2H             C2H2,acetylene  C2H2,vinylidene
 CH2CO,ketene    O(CH)2O         HO(CO)2OH       C2H3,vinyl      CH3CN          
 CH3CO,acetyl    C2H4O,ethylen-o CH3CHO,ethanal  CH3COOH         OHCH2COOH      
 C2H5            C2H6            CH3N2CH3        C2H5OH          CH3OCH3        
 CH3O2CH3        CCN             CNC             OCCN            C2N2           
 C2O             *C3             C3H3,1-propynl  C3H3,2-propynl  C3H4,allene    
 C3H4,propyne    C3H4,cyclo-     C3H5,allyl      C3H6,propylene  C3H6,cyclo-    
 C3H6O,propylox  C3H6O,acetone   C3H6O,propanal  C3H7,n-propyl   C3H7,i-propyl  
 C3H8            C3H8O,1propanol C3H8O,2propanol CNCOCN          C3O2           
 *C4             C4H2,butadiyne  C4H4,1,3-cyclo- C4H6,butadiene  C4H6,1butyne   
 C4H6,2butyne    C4H6,cyclo-     C4H8,1-butene   C4H8,cis2-buten C4H8,tr2-butene
 C4H8,isobutene  C4H8,cyclo-     (CH3COOH)2      C4H9,n-butyl    C4H9,i-butyl   
 C4H9,s-butyl    C4H9,t-butyl    C4H10,n-butane  C4H10,isobutane C4N2           
 *C5             C5H6,1,3cyclo-  C5H8,cyclo-     C5H10,1-pentene C5H10,cyclo-   
 C5H11,pentyl    C5H11,t-pentyl  C5H12,n-pentane C5H12,i-pentane CH3C(CH3)2CH3  
 C6H2            C6H5,phenyl     C6H5O,phenoxy   C6H6            C6H5OH,phenol  
 C6H10,cyclo-    C6H12,1-hexene  C6H12,cyclo-    C6H13,n-hexyl   C6H14,n-hexane 
 C7H7,benzyl     C7H8            C7H8O,cresol-mx C7H14,1-heptene C7H15,n-heptyl 
 C7H16,n-heptane C7H16,2-methylh C8H8,styrene    C8H10,ethylbenz C8H16,1-octene 
 C8H17,n-octyl   C8H18,n-octane  C8H18,isooctane C9H19,n-nonyl   C10H8,naphthale
 C10H21,n-decyl  C12H9,o-bipheny C12H10,biphenyl *H              HCO            
 HCCN            HCCO            HNC             HNCO            HNO            
 HNO2            HNO3            HO2             HCHO,formaldehy HCOOH          
 H2O2            (HCOOH)2        *N              NCO             *NH            
 NH2             NH2OH           *NO             NO2             NO3            
 NCN             N2H2            NH2NO2          N2H4            N2O            
 N2O3            N2O4            N2O5            N3              N3H            
 *O              *OH             *O2             O3              H2O(cr)        
 H2O(L)         

 NOTE. WEIGHT FRACTION OF FUEL IN TOTAL FUELS AND OF OXIDANT IN TOTAL OXIDANTS






 POINT ITN      T            C           H           N           O 

   1    2    1399.299      -2.063      -7.971     -11.705     -31.671

 Pinf/Pt = 1.783364
   2    4    1282.913      -1.911      -8.146     -11.859     -33.046

 Pinf/Pt = 1.767687
   2    2    1284.495      -1.914      -8.144     -11.857     -33.025

 Pinf/Pt = 1.767918
   2    1    1284.472      -1.913      -8.144     -11.857     -33.025






              THEORETICAL ROCKET PERFORMANCE ASSUMING EQUILIBRIUM

           COMPOSITION DURING EXPANSION FROM INFINITE AREA COMBUSTOR

 Pin =   493.1 PSIA
 CASE =                

             REACTANT                    WT FRACTION      ENERGY      TEMP
                                          (SEE NOTE)     KJ/KG-MOL      K  
 FUEL        C4H6,butadiene               1.0000000         0.000      0.000
 OXIDANT     N2O                          1.0000000         0.000      0.000

 O/F=    2.00000  %FUEL= 33.333333  R,EQ.RATIO= 4.475290  PHI,EQ.RATIO= 4.475290

                 CHAMBER   THROAT
 Pinf/P            1.0000   1.7679
 P, BAR            34.000   19.232
 T, K             1399.30  1284.47
 RHO, KG/CU M    6.2079 0 3.8734 0
 H, KJ/KG         0.00000  -297.03
 U, KJ/KG         -547.69  -793.53
 G, KJ/KG        -13727.5 -12898.0
 S, KJ/(KG)(K)     9.8102   9.8102

 M, (1/n)          21.243   21.510
 MW, MOL WT        17.668   17.709
 (dLV/dLP)t      -1.03012 -1.03886
 (dLV/dLT)p        1.3064   1.4527
 Cp, KJ/(KG)(K)    3.1807   4.0169
 GAMMAs            1.2193   1.1965
 SON VEL,M/SEC      817.2    770.8
 MACH NUMBER        0.000    1.000

 TRANSPORT PROPERTIES (GASES ONLY)
   CONDUCTIVITY IN UNITS OF MILLIWATTS/(CM)(K)

 VISC,MILLIPOISE  0.50441  0.47794

  WITH EQUILIBRIUM REACTIONS

 Cp, KJ/(KG)(K)    3.2204   3.8586
 CONDUCTIVITY      2.7599   3.0320
 PRANDTL NUMBER    0.5886   0.6083

  WITH FROZEN REACTIONS

 Cp, KJ/(KG)(K)    1.8580   1.8332
 CONDUCTIVITY      1.7599   1.6324
 PRANDTL NUMBER    0.5325   0.5367

 PERFORMANCE PARAMETERS

 Ae/At                      1.0000
 CSTAR, M/SEC               1138.8
 CF                         0.6768
 Ivac, M/SEC                1414.9
 Isp, M/SEC                  770.8


 MOLE FRACTIONS

 CH4              0.01464  0.01593
 *CO              0.24803  0.23572
 *CO2             0.00435  0.00810
 C2H4             0.00001  0.00000
 HCN              0.00016  0.00006
 *H2              0.28596  0.27883
 H2O              0.01088  0.01631
 NH3              0.00028  0.00024
 *N2              0.26739  0.26809
 C(gr)            0.16830  0.17671

  * THERMODYNAMIC PROPERTIES FITTED TO 20000.K

    PRODUCTS WHICH WERE CONSIDERED BUT WHOSE MOLE FRACTIONS
    WERE LESS THAN 5.000000E-06 FOR ALL ASSIGNED CONDITIONS

 *C              *CH             CH2             CH3             CH2OH          
 CH3O            CH3OH           CH3OOH          *CN             CNN            
 COOH            *C2             C2H             C2H2,acetylene  C2H2,vinylidene
 CH2CO,ketene    O(CH)2O         HO(CO)2OH       C2H3,vinyl      CH3CN          
 CH3CO,acetyl    C2H4O,ethylen-o CH3CHO,ethanal  CH3COOH         OHCH2COOH      
 C2H5            C2H6            CH3N2CH3        C2H5OH          CH3OCH3        
 CH3O2CH3        CCN             CNC             OCCN            C2N2           
 C2O             *C3             C3H3,1-propynl  C3H3,2-propynl  C3H4,allene    
 C3H4,propyne    C3H4,cyclo-     C3H5,allyl      C3H6,propylene  C3H6,cyclo-    
 C3H6O,propylox  C3H6O,acetone   C3H6O,propanal  C3H7,n-propyl   C3H7,i-propyl  
 C3H8            C3H8O,1propanol C3H8O,2propanol CNCOCN          C3O2           
 *C4             C4H2,butadiyne  C4H4,1,3-cyclo- C4H6,butadiene  C4H6,1butyne   
 C4H6,2butyne    C4H6,cyclo-     C4H8,1-butene   C4H8,cis2-buten C4H8,tr2-butene
 C4H8,isobutene  C4H8,cyclo-     (CH3COOH)2      C4H9,n-butyl    C4H9,i-butyl   
 C4H9,s-butyl    C4H9,t-butyl    C4H10,n-butane  C4H10,isobutane C4N2           
 *C5             C5H6,1,3cyclo-  C5H8,cyclo-     C5H10,1-pentene C5H10,cyclo-   
 C5H11,pentyl    C5H11,t-pentyl  C5H12,n-pentane C5H12,i-pentane CH3C(CH3)2CH3  
 C6H2            C6H5,phenyl     C6H5O,phenoxy   C6H6            C6H5OH,phenol  
 C6H10,cyclo-    C6H12,1-hexene  C6H12,cyclo-    C6H13,n-hexyl   C6H14,n-hexane 
 C7H7,benzyl     C7H8            C7H8O,cresol-mx C7H14,1-heptene C7H15,n-heptyl 
 C7H16,n-heptane C7H16,2-methylh C8H8,styrene    C8H10,ethylbenz C8H16,1-octene 
 C8H17,n-octyl   C8H18,n-octane  C8H18,isooctane C9H19,n-nonyl   C10H8,naphthale
 C10H21,n-decyl  C12H9,o-bipheny C12H10,biphenyl *H              HCO            
 HCCN            HCCO            HNC             HNCO            HNO            
 HNO2            HNO3            HO2             HCHO,formaldehy HCOOH          
 H2O2            (HCOOH)2        *N              NCO             *NH            
 NH2             NH2OH           *NO             NO2             NO3            
 NCN             N2H2            NH2NO2          N2H4            N2O            
 N2O3            N2O4            N2O5            N3              N3H            
 *O              *OH             *O2             O3              H2O(cr)        
 H2O(L)         

 NOTE. WEIGHT FRACTION OF FUEL IN TOTAL FUELS AND OF OXIDANT IN TOTAL OXIDANTS






 POINT ITN      T            C           H           N           O 

   1    2    1400.834      -2.065      -7.959     -11.691     -31.634

 Pinf/Pt = 1.783162
   2    4    1284.514      -1.914      -8.134     -11.846     -33.006

 Pinf/Pt = 1.767588
   2    2    1286.086      -1.916      -8.132     -11.844     -32.985

 Pinf/Pt = 1.767816
   2    1    1286.063      -1.916      -8.132     -11.844     -32.986






              THEORETICAL ROCKET PERFORMANCE ASSUMING EQUILIBRIUM

           COMPOSITION DURING EXPANSION FROM INFINITE AREA COMBUSTOR

 Pin =   507.6 PSIA
 CASE =                

             REACTANT                    WT FRACTION      ENERGY      TEMP
                                          (SEE NOTE)     KJ/KG-MOL      K  
 FUEL        C4H6,butadiene               1.0000000         0.000      0.000
 OXIDANT     N2O                          1.0000000         0.000      0.000

 O/F=    2.00000  %FUEL= 33.333333  R,EQ.RATIO= 4.475290  PHI,EQ.RATIO= 4.475290

                 CHAMBER   THROAT
 Pinf/P            1.0000   1.7678
 P, BAR            35.000   19.798
 T, K             1400.83  1286.06
 RHO, KG/CU M    6.3869 0 3.9849 0
 H, KJ/KG         0.00000  -297.18
 U, KJ/KG         -547.99  -794.02
 G, KJ/KG        -13726.6 -12899.2
 S, KJ/(KG)(K)     9.7989   9.7989

 M, (1/n)          21.254   21.522
 MW, MOL WT        17.676   17.717
 (dLV/dLP)t      -1.03049 -1.03921
 (dLV/dLT)p        1.3097   1.4561
 Cp, KJ/(KG)(K)    3.1931   4.0285
 GAMMAs            1.2190   1.1963
 SON VEL,M/SEC      817.3    771.0
 MACH NUMBER        0.000    1.000

 TRANSPORT PROPERTIES (GASES ONLY)
   CONDUCTIVITY IN UNITS OF MILLIWATTS/(CM)(K)

 VISC,MILLIPOISE  0.50478  0.47834

  WITH EQUILIBRIUM REACTIONS

 Cp, KJ/(KG)(K)    3.2339   3.8726
 CONDUCTIVITY      2.7721   3.0453
 PRANDTL NUMBER    0.5888   0.6083

  WITH FROZEN REACTIONS

 Cp, KJ/(KG)(K)    1.8585   1.8337
 CONDUCTIVITY      1.7605   1.6331
 PRANDTL NUMBER    0.5329   0.5371

 PERFORMANCE PARAMETERS

 Ae/At                      1.0000
 CSTAR, M/SEC               1139.3
 CF                         0.6767
 Ivac, M/SEC                1415.4
 Isp, M/SEC                  771.0


 MOLE FRACTIONS

 CH4              0.01489  0.01617
 *CO              0.24790  0.23554
 *CO2             0.00440  0.00817
 C2H4             0.00001  0.00000
 HCN              0.00016  0.00006
 *H2              0.28545  0.27832
 H2O              0.01103  0.01649
 NH3              0.00028  0.00024
 *N2              0.26752  0.26822
 C(gr)            0.16834  0.17679

  * THERMODYNAMIC PROPERTIES FITTED TO 20000.K

    PRODUCTS WHICH WERE CONSIDERED BUT WHOSE MOLE FRACTIONS
    WERE LESS THAN 5.000000E-06 FOR ALL ASSIGNED CONDITIONS

 *C              *CH             CH2             CH3             CH2OH          
 CH3O            CH3OH           CH3OOH          *CN             CNN            
 COOH            *C2             C2H             C2H2,acetylene  C2H2,vinylidene
 CH2CO,ketene    O(CH)2O         HO(CO)2OH       C2H3,vinyl      CH3CN          
 CH3CO,acetyl    C2H4O,ethylen-o CH3CHO,ethanal  CH3COOH         OHCH2COOH      
 C2H5            C2H6            CH3N2CH3        C2H5OH          CH3OCH3        
 CH3O2CH3        CCN             CNC             OCCN            C2N2           
 C2O             *C3             C3H3,1-propynl  C3H3,2-propynl  C3H4,allene    
 C3H4,propyne    C3H4,cyclo-     C3H5,allyl      C3H6,propylene  C3H6,cyclo-    
 C3H6O,propylox  C3H6O,acetone   C3H6O,propanal  C3H7,n-propyl   C3H7,i-propyl  
 C3H8            C3H8O,1propanol C3H8O,2propanol CNCOCN          C3O2           
 *C4             C4H2,butadiyne  C4H4,1,3-cyclo- C4H6,butadiene  C4H6,1butyne   
 C4H6,2butyne    C4H6,cyclo-     C4H8,1-butene   C4H8,cis2-buten C4H8,tr2-butene
 C4H8,isobutene  C4H8,cyclo-     (CH3COOH)2      C4H9,n-butyl    C4H9,i-butyl   
 C4H9,s-butyl    C4H9,t-butyl    C4H10,n-butane  C4H10,isobutane C4N2           
 *C5             C5H6,1,3cyclo-  C5H8,cyclo-     C5H10,1-pentene C5H10,cyclo-   
 C5H11,pentyl    C5H11,t-pentyl  C5H12,n-pentane C5H12,i-pentane CH3C(CH3)2CH3  
 C6H2            C6H5,phenyl     C6H5O,phenoxy   C6H6            C6H5OH,phenol  
 C6H10,cyclo-    C6H12,1-hexene  C6H12,cyclo-    C6H13,n-hexyl   C6H14,n-hexane 
 C7H7,benzyl     C7H8            C7H8O,cresol-mx C7H14,1-heptene C7H15,n-heptyl 
 C7H16,n-heptane C7H16,2-methylh C8H8,styrene    C8H10,ethylbenz C8H16,1-octene 
 C8H17,n-octyl   C8H18,n-octane  C8H18,isooctane C9H19,n-nonyl   C10H8,naphthale
 C10H21,n-decyl  C12H9,o-bipheny C12H10,biphenyl *H              HCO            
 HCCN            HCCO            HNC             HNCO            HNO            
 HNO2            HNO3            HO2             HCHO,formaldehy HCOOH          
 H2O2            (HCOOH)2        *N              NCO             *NH            
 NH2             NH2OH           *NO             NO2             NO3            
 NCN             N2H2            NH2NO2          N2H4            N2O            
 N2O3            N2O4            N2O5            N3              N3H            
 *O              *OH             *O2             O3              H2O(cr)        
 H2O(L)         

 NOTE. WEIGHT FRACTION OF FUEL IN TOTAL FUELS AND OF OXIDANT IN TOTAL OXIDANTS






 POINT ITN      T            C           H           N           O 

   1    2    1402.337      -2.067      -7.947     -11.679     -31.597

 Pinf/Pt = 1.782969
   2    4    1286.078      -1.916      -8.123     -11.834     -32.967

 Pinf/Pt = 1.767494
   2    2    1287.641      -1.918      -8.120     -11.831     -32.947

 Pinf/Pt = 1.767719
   2    1    1287.618      -1.918      -8.120     -11.831     -32.947






              THEORETICAL ROCKET PERFORMANCE ASSUMING EQUILIBRIUM

           COMPOSITION DURING EXPANSION FROM INFINITE AREA COMBUSTOR

 Pin =   522.1 PSIA
 CASE =                

             REACTANT                    WT FRACTION      ENERGY      TEMP
                                          (SEE NOTE)     KJ/KG-MOL      K  
 FUEL        C4H6,butadiene               1.0000000         0.000      0.000
 OXIDANT     N2O                          1.0000000         0.000      0.000

 O/F=    2.00000  %FUEL= 33.333333  R,EQ.RATIO= 4.475290  PHI,EQ.RATIO= 4.475290

                 CHAMBER   THROAT
 Pinf/P            1.0000   1.7677
 P, BAR            36.000   20.365
 T, K             1402.34  1287.62
 RHO, KG/CU M    6.5658 0 4.0964 0
 H, KJ/KG         0.00000  -297.33
 U, KJ/KG         -548.29  -794.49
 G, KJ/KG        -13725.9 -12900.4
 S, KJ/(KG)(K)     9.7879   9.7879

 M, (1/n)          21.266   21.534
 MW, MOL WT        17.685   17.726
 (dLV/dLP)t      -1.03085 -1.03956
 (dLV/dLT)p        1.3130   1.4593
 Cp, KJ/(KG)(K)    3.2051   4.0397
 GAMMAs            1.2187   1.1961
 SON VEL,M/SEC      817.4    771.1
 MACH NUMBER        0.000    1.000

 TRANSPORT PROPERTIES (GASES ONLY)
   CONDUCTIVITY IN UNITS OF MILLIWATTS/(CM)(K)

 VISC,MILLIPOISE  0.50513  0.47872

  WITH EQUILIBRIUM REACTIONS

 Cp, KJ/(KG)(K)    3.2469   3.8861
 CONDUCTIVITY      2.7841   3.0583
 PRANDTL NUMBER    0.5891   0.6083

  WITH FROZEN REACTIONS

 Cp, KJ/(KG)(K)    1.8589   1.8341
 CONDUCTIVITY      1.7610   1.6337
 PRANDTL NUMBER    0.5332   0.5374

 PERFORMANCE PARAMETERS

 Ae/At                      1.0000
 CSTAR, M/SEC               1139.6
 CF                         0.6767
 Ivac, M/SEC                1415.8
 Isp, M/SEC                  771.1


 MOLE FRACTIONS

 CH4              0.01513  0.01640
 *CO              0.24778  0.23536
 *CO2             0.00446  0.00823
 C2H4             0.00001  0.00000
 HCN              0.00016  0.00006
 *H2              0.28496  0.27782
 H2O              0.01118  0.01666
 NH3              0.00029  0.00025
 *N2              0.26765  0.26834
 C(gr)            0.16838  0.17687

  * THERMODYNAMIC PROPERTIES FITTED TO 20000.K

    PRODUCTS WHICH WERE CONSIDERED BUT WHOSE MOLE FRACTIONS
    WERE LESS THAN 5.000000E-06 FOR ALL ASSIGNED CONDITIONS

 *C              *CH             CH2             CH3             CH2OH          
 CH3O            CH3OH           CH3OOH          *CN             CNN            
 COOH            *C2             C2H             C2H2,acetylene  C2H2,vinylidene
 CH2CO,ketene    O(CH)2O         HO(CO)2OH       C2H3,vinyl      CH3CN          
 CH3CO,acetyl    C2H4O,ethylen-o CH3CHO,ethanal  CH3COOH         OHCH2COOH      
 C2H5            C2H6            CH3N2CH3        C2H5OH          CH3OCH3        
 CH3O2CH3        CCN             CNC             OCCN            C2N2           
 C2O             *C3             C3H3,1-propynl  C3H3,2-propynl  C3H4,allene    
 C3H4,propyne    C3H4,cyclo-     C3H5,allyl      C3H6,propylene  C3H6,cyclo-    
 C3H6O,propylox  C3H6O,acetone   C3H6O,propanal  C3H7,n-propyl   C3H7,i-propyl  
 C3H8            C3H8O,1propanol C3H8O,2propanol CNCOCN          C3O2           
 *C4             C4H2,butadiyne  C4H4,1,3-cyclo- C4H6,butadiene  C4H6,1butyne   
 C4H6,2butyne    C4H6,cyclo-     C4H8,1-butene   C4H8,cis2-buten C4H8,tr2-butene
 C4H8,isobutene  C4H8,cyclo-     (CH3COOH)2      C4H9,n-butyl    C4H9,i-butyl   
 C4H9,s-butyl    C4H9,t-butyl    C4H10,n-butane  C4H10,isobutane C4N2           
 *C5             C5H6,1,3cyclo-  C5H8,cyclo-     C5H10,1-pentene C5H10,cyclo-   
 C5H11,pentyl    C5H11,t-pentyl  C5H12,n-pentane C5H12,i-pentane CH3C(CH3)2CH3  
 C6H2            C6H5,phenyl     C6H5O,phenoxy   C6H6            C6H5OH,phenol  
 C6H10,cyclo-    C6H12,1-hexene  C6H12,cyclo-    C6H13,n-hexyl   C6H14,n-hexane 
 C7H7,benzyl     C7H8            C7H8O,cresol-mx C7H14,1-heptene C7H15,n-heptyl 
 C7H16,n-heptane C7H16,2-methylh C8H8,styrene    C8H10,ethylbenz C8H16,1-octene 
 C8H17,n-octyl   C8H18,n-octane  C8H18,isooctane C9H19,n-nonyl   C10H8,naphthale
 C10H21,n-decyl  C12H9,o-bipheny C12H10,biphenyl *H              HCO            
 HCCN            HCCO            HNC             HNCO            HNO            
 HNO2            HNO3            HO2             HCHO,formaldehy HCOOH          
 H2O2            (HCOOH)2        *N              NCO             *NH            
 NH2             NH2OH           *NO             NO2             NO3            
 NCN             N2H2            NH2NO2          N2H4            N2O            
 N2O3            N2O4            N2O5            N3              N3H            
 *O              *OH             *O2             O3              H2O(cr)        
 H2O(L)         

 NOTE. WEIGHT FRACTION OF FUEL IN TOTAL FUELS AND OF OXIDANT IN TOTAL OXIDANTS






 POINT ITN      T            C           H           N           O 

   1    2    1403.810      -2.069      -7.936     -11.666     -31.562

 Pinf/Pt = 1.782782
   2    4    1287.606      -1.918      -8.111     -11.821     -32.930

 Pinf/Pt = 1.767403
   2    2    1289.160      -1.920      -8.109     -11.819     -32.909

 Pinf/Pt = 1.767626
   2    1    1289.137      -1.920      -8.109     -11.819     -32.910






              THEORETICAL ROCKET PERFORMANCE ASSUMING EQUILIBRIUM

           COMPOSITION DURING EXPANSION FROM INFINITE AREA COMBUSTOR

 Pin =   536.6 PSIA
 CASE =                

             REACTANT                    WT FRACTION      ENERGY      TEMP
                                          (SEE NOTE)     KJ/KG-MOL      K  
 FUEL        C4H6,butadiene               1.0000000         0.000      0.000
 OXIDANT     N2O                          1.0000000         0.000      0.000

 O/F=    2.00000  %FUEL= 33.333333  R,EQ.RATIO= 4.475290  PHI,EQ.RATIO= 4.475290

                 CHAMBER   THROAT
 Pinf/P            1.0000   1.7676
 P, BAR            37.000   20.932
 T, K             1403.81  1289.14
 RHO, KG/CU M    6.7447 0 4.2077 0
 H, KJ/KG         0.00000  -297.48
 U, KJ/KG         -548.58  -794.95
 G, KJ/KG        -13725.3 -12901.6
 S, KJ/(KG)(K)     9.7772   9.7772

 M, (1/n)          21.277   21.546
 MW, MOL WT        17.693   17.734
 (dLV/dLP)t      -1.03121 -1.03989
 (dLV/dLT)p        1.3162   1.4624
 Cp, KJ/(KG)(K)    3.2166   4.0505
 GAMMAs            1.2184   1.1960
 SON VEL,M/SEC      817.6    771.3
 MACH NUMBER        0.000    1.000

 TRANSPORT PROPERTIES (GASES ONLY)
   CONDUCTIVITY IN UNITS OF MILLIWATTS/(CM)(K)

 VISC,MILLIPOISE  0.50548  0.47909

  WITH EQUILIBRIUM REACTIONS

 Cp, KJ/(KG)(K)    3.2595   3.8992
 CONDUCTIVITY      2.7957   3.0709
 PRANDTL NUMBER    0.5893   0.6083

  WITH FROZEN REACTIONS

 Cp, KJ/(KG)(K)    1.8593   1.8346
 CONDUCTIVITY      1.7615   1.6344
 PRANDTL NUMBER    0.5335   0.5378

 PERFORMANCE PARAMETERS

 Ae/At                      1.0000
 CSTAR, M/SEC               1140.0
 CF                         0.6766
 Ivac, M/SEC                1416.3
 Isp, M/SEC                  771.3


 MOLE FRACTIONS

 CH4              0.01538  0.01664
 *CO              0.24765  0.23519
 *CO2             0.00451  0.00830
 C2H4             0.00001  0.00000
 HCN              0.00017  0.00006
 *H2              0.28447  0.27733
 H2O              0.01133  0.01683
 NH3              0.00030  0.00025
 *N2              0.26777  0.26846
 C(gr)            0.16841  0.17694

  * THERMODYNAMIC PROPERTIES FITTED TO 20000.K

    PRODUCTS WHICH WERE CONSIDERED BUT WHOSE MOLE FRACTIONS
    WERE LESS THAN 5.000000E-06 FOR ALL ASSIGNED CONDITIONS

 *C              *CH             CH2             CH3             CH2OH          
 CH3O            CH3OH           CH3OOH          *CN             CNN            
 COOH            *C2             C2H             C2H2,acetylene  C2H2,vinylidene
 CH2CO,ketene    O(CH)2O         HO(CO)2OH       C2H3,vinyl      CH3CN          
 CH3CO,acetyl    C2H4O,ethylen-o CH3CHO,ethanal  CH3COOH         OHCH2COOH      
 C2H5            C2H6            CH3N2CH3        C2H5OH          CH3OCH3        
 CH3O2CH3        CCN             CNC             OCCN            C2N2           
 C2O             *C3             C3H3,1-propynl  C3H3,2-propynl  C3H4,allene    
 C3H4,propyne    C3H4,cyclo-     C3H5,allyl      C3H6,propylene  C3H6,cyclo-    
 C3H6O,propylox  C3H6O,acetone   C3H6O,propanal  C3H7,n-propyl   C3H7,i-propyl  
 C3H8            C3H8O,1propanol C3H8O,2propanol CNCOCN          C3O2           
 *C4             C4H2,butadiyne  C4H4,1,3-cyclo- C4H6,butadiene  C4H6,1butyne   
 C4H6,2butyne    C4H6,cyclo-     C4H8,1-butene   C4H8,cis2-buten C4H8,tr2-butene
 C4H8,isobutene  C4H8,cyclo-     (CH3COOH)2      C4H9,n-butyl    C4H9,i-butyl   
 C4H9,s-butyl    C4H9,t-butyl    C4H10,n-butane  C4H10,isobutane C4N2           
 *C5             C5H6,1,3cyclo-  C5H8,cyclo-     C5H10,1-pentene C5H10,cyclo-   
 C5H11,pentyl    C5H11,t-pentyl  C5H12,n-pentane C5H12,i-pentane CH3C(CH3)2CH3  
 C6H2            C6H5,phenyl     C6H5O,phenoxy   C6H6            C6H5OH,phenol  
 C6H10,cyclo-    C6H12,1-hexene  C6H12,cyclo-    C6H13,n-hexyl   C6H14,n-hexane 
 C7H7,benzyl     C7H8            C7H8O,cresol-mx C7H14,1-heptene C7H15,n-heptyl 
 C7H16,n-heptane C7H16,2-methylh C8H8,styrene    C8H10,ethylbenz C8H16,1-octene 
 C8H17,n-octyl   C8H18,n-octane  C8H18,isooctane C9H19,n-nonyl   C10H8,naphthale
 C10H21,n-decyl  C12H9,o-bipheny C12H10,biphenyl *H              HCO            
 HCCN            HCCO            HNC             HNCO            HNO            
 HNO2            HNO3            HO2             HCHO,formaldehy HCOOH          
 H2O2            (HCOOH)2        *N              NCO             *NH            
 NH2             NH2OH           *NO             NO2             NO3            
 NCN             N2H2            NH2NO2          N2H4            N2O            
 N2O3            N2O4            N2O5            N3              N3H            
 *O              *OH             *O2             O3              H2O(cr)        
 H2O(L)         

 NOTE. WEIGHT FRACTION OF FUEL IN TOTAL FUELS AND OF OXIDANT IN TOTAL OXIDANTS






 O/F =   3.000000

                       EFFECTIVE FUEL     EFFECTIVE OXIDANT        MIXTURE
 ENTHALPY                  h(2)/R              h(1)/R               h0/R
 (KG-MOL)(K)/KG        0.00000000E+00      0.00000000E+00      0.00000000E+00

 KG-FORM.WT./KG             bi(2)               bi(1)               b0i
  *C                   0.73950221E-01      0.00000000E+00      0.18487555E-01
  *H                   0.11092533E+00      0.00000000E+00      0.27731333E-01
  *N                   0.00000000E+00      0.45441326E-01      0.34080995E-01
  *O                   0.00000000E+00      0.22720663E-01      0.17040497E-01

 POINT ITN      T            C           H           N           O 

   1    4    1549.580      -2.251      -8.286     -11.868     -30.836

 Pinf/Pt = 1.820037
   2    4    1375.520      -2.033      -8.421     -11.982     -32.390

 Pinf/Pt = 1.801992
   2    2    1378.061      -2.036      -8.419     -11.980     -32.364

 Pinf/Pt = 1.802426
   2    1    1377.999      -2.036      -8.419     -11.980     -32.365






              THEORETICAL ROCKET PERFORMANCE ASSUMING EQUILIBRIUM

           COMPOSITION DURING EXPANSION FROM INFINITE AREA COMBUSTOR

 Pin =   435.1 PSIA
 CASE =                

             REACTANT                    WT FRACTION      ENERGY      TEMP
                                          (SEE NOTE)     KJ/KG-MOL      K  
 FUEL        C4H6,butadiene               1.0000000         0.000      0.000
 OXIDANT     N2O                          1.0000000         0.000      0.000

 O/F=    3.00000  %FUEL= 25.000000  R,EQ.RATIO= 2.983527  PHI,EQ.RATIO= 2.983527

                 CHAMBER   THROAT
 Pinf/P            1.0000   1.8024
 P, BAR            30.000   16.644
 T, K             1549.58  1378.00
 RHO, KG/CU M    4.9057 0 3.0836 0
 H, KJ/KG         0.00000  -338.43
 U, KJ/KG         -611.54  -878.20
 G, KJ/KG        -15478.5 -14103.0
 S, KJ/(KG)(K)     9.9888   9.9888

 M, (1/n)          21.068   21.226
 MW, MOL WT        20.449   20.494
 (dLV/dLP)t      -1.00953 -1.01610
 (dLV/dLT)p        1.0872   1.1787
 Cp, KJ/(KG)(K)    2.0454   2.4892
 GAMMAs            1.2796   1.2540
 SON VEL,M/SEC      884.6    822.7
 MACH NUMBER        0.000    1.000

 TRANSPORT PROPERTIES (GASES ONLY)
   CONDUCTIVITY IN UNITS OF MILLIWATTS/(CM)(K)

 VISC,MILLIPOISE  0.54488  0.50508

  WITH EQUILIBRIUM REACTIONS

 Cp, KJ/(KG)(K)    2.0085   2.2896
 CONDUCTIVITY      1.9107   1.9501
 PRANDTL NUMBER    0.5728   0.5930

  WITH FROZEN REACTIONS

 Cp, KJ/(KG)(K)    1.6809   1.6523
 CONDUCTIVITY      1.6577   1.4981
 PRANDTL NUMBER    0.5525   0.5571

 PERFORMANCE PARAMETERS

 Ae/At                      1.0000
 CSTAR, M/SEC               1182.5
 CF                         0.6957
 Ivac, M/SEC                1478.8
 Isp, M/SEC                  822.7


 MOLE FRACTIONS

 CH4              0.00466  0.00598
 *CO              0.34183  0.33406
 *CO2             0.00157  0.00415
 C2H4             0.00001  0.00000
 HCN              0.00053  0.00015
 HNC              0.00001  0.00000
 *H2              0.27024  0.26506
 H2O              0.00348  0.00686
 NH3              0.00014  0.00013
 *N2              0.34811  0.34908
 C(gr)            0.02942  0.03452

  * THERMODYNAMIC PROPERTIES FITTED TO 20000.K

    PRODUCTS WHICH WERE CONSIDERED BUT WHOSE MOLE FRACTIONS
    WERE LESS THAN 5.000000E-06 FOR ALL ASSIGNED CONDITIONS

 *C              *CH             CH2             CH3             CH2OH          
 CH3O            CH3OH           CH3OOH          *CN             CNN            
 COOH            *C2             C2H             C2H2,acetylene  C2H2,vinylidene
 CH2CO,ketene    O(CH)2O         HO(CO)2OH       C2H3,vinyl      CH3CN          
 CH3CO,acetyl    C2H4O,ethylen-o CH3CHO,ethanal  CH3COOH         OHCH2COOH      
 C2H5            C2H6            CH3N2CH3        C2H5OH          CH3OCH3        
 CH3O2CH3        CCN             CNC             OCCN            C2N2           
 C2O             *C3             C3H3,1-propynl  C3H3,2-propynl  C3H4,allene    
 C3H4,propyne    C3H4,cyclo-     C3H5,allyl      C3H6,propylene  C3H6,cyclo-    
 C3H6O,propylox  C3H6O,acetone   C3H6O,propanal  C3H7,n-propyl   C3H7,i-propyl  
 C3H8            C3H8O,1propanol C3H8O,2propanol CNCOCN          C3O2           
 *C4             C4H2,butadiyne  C4H4,1,3-cyclo- C4H6,butadiene  C4H6,1butyne   
 C4H6,2butyne    C4H6,cyclo-     C4H8,1-butene   C4H8,cis2-buten C4H8,tr2-butene
 C4H8,isobutene  C4H8,cyclo-     (CH3COOH)2      C4H9,n-butyl    C4H9,i-butyl   
 C4H9,s-butyl    C4H9,t-butyl    C4H10,n-butane  C4H10,isobutane C4N2           
 *C5             C5H6,1,3cyclo-  C5H8,cyclo-     C5H10,1-pentene C5H10,cyclo-   
 C5H11,pentyl    C5H11,t-pentyl  C5H12,n-pentane C5H12,i-pentane CH3C(CH3)2CH3  
 C6H2            C6H5,phenyl     C6H5O,phenoxy   C6H6            C6H5OH,phenol  
 C6H10,cyclo-    C6H12,1-hexene  C6H12,cyclo-    C6H13,n-hexyl   C6H14,n-hexane 
 C7H7,benzyl     C7H8            C7H8O,cresol-mx C7H14,1-heptene C7H15,n-heptyl 
 C7H16,n-heptane C7H16,2-methylh C8H8,styrene    C8H10,ethylbenz C8H16,1-octene 
 C8H17,n-octyl   C8H18,n-octane  C8H18,isooctane C9H19,n-nonyl   C10H8,naphthale
 C10H21,n-decyl  C12H9,o-bipheny C12H10,biphenyl *H              HCO            
 HCCN            HCCO            HNCO            HNO             HNO2           
 HNO3            HO2             HCHO,formaldehy HCOOH           H2O2           
 (HCOOH)2        *N              NCO             *NH             NH2            
 NH2OH           *NO             NO2             NO3             NCN            
 N2H2            NH2NO2          N2H4            N2O             N2O3           
 N2O4            N2O5            N3              N3H             *O             
 *OH             *O2             O3              H2O(cr)         H2O(L)         

 NOTE. WEIGHT FRACTION OF FUEL IN TOTAL FUELS AND OF OXIDANT IN TOTAL OXIDANTS






 POINT ITN      T            C           H           N           O 

   1    2    1550.443      -2.252      -8.271     -11.853     -30.800

 Pinf/Pt = 1.819722
   2    4    1376.795      -2.034      -8.407     -11.967     -32.350

 Pinf/Pt = 1.801601
   2    2    1379.341      -2.037      -8.404     -11.965     -32.324

 Pinf/Pt = 1.802035
   2    2    1379.280      -2.037      -8.404     -11.965     -32.325






              THEORETICAL ROCKET PERFORMANCE ASSUMING EQUILIBRIUM

           COMPOSITION DURING EXPANSION FROM INFINITE AREA COMBUSTOR

 Pin =   449.6 PSIA
 CASE =                

             REACTANT                    WT FRACTION      ENERGY      TEMP
                                          (SEE NOTE)     KJ/KG-MOL      K  
 FUEL        C4H6,butadiene               1.0000000         0.000      0.000
 OXIDANT     N2O                          1.0000000         0.000      0.000

 O/F=    3.00000  %FUEL= 25.000000  R,EQ.RATIO= 2.983527  PHI,EQ.RATIO= 2.983527

                 CHAMBER   THROAT
 Pinf/P            1.0000   1.8020
 P, BAR            31.000   17.203
 T, K             1550.44  1379.28
 RHO, KG/CU M    5.0677 0 3.1853 0
 H, KJ/KG         0.00000  -338.45
 U, KJ/KG         -611.71  -878.52
 G, KJ/KG        -15467.0 -14098.0
 S, KJ/(KG)(K)     9.9759   9.9759

 M, (1/n)          21.074   21.234
 MW, MOL WT        20.454   20.499
 (dLV/dLP)t      -1.00976 -1.01640
 (dLV/dLT)p        1.0893   1.1818
 Cp, KJ/(KG)(K)    2.0535   2.5028
 GAMMAs            1.2791   1.2533
 SON VEL,M/SEC      884.6    822.7
 MACH NUMBER        0.000    1.000

 TRANSPORT PROPERTIES (GASES ONLY)
   CONDUCTIVITY IN UNITS OF MILLIWATTS/(CM)(K)

 VISC,MILLIPOISE  0.54509  0.50540

  WITH EQUILIBRIUM REACTIONS

 Cp, KJ/(KG)(K)    2.0161   2.3011
 CONDUCTIVITY      1.9170   1.9594
 PRANDTL NUMBER    0.5733   0.5935

  WITH FROZEN REACTIONS

 Cp, KJ/(KG)(K)    1.6811   1.6526
 CONDUCTIVITY      1.6579   1.4988
 PRANDTL NUMBER    0.5527   0.5573

 PERFORMANCE PARAMETERS

 Ae/At                     1.00000
 CSTAR, M/SEC               1182.9
 CF                         0.6955
 Ivac, M/SEC                1479.2
 Isp, M/SEC                  822.7


 MOLE FRACTIONS

 CH4              0.00478  0.00612
 *CO              0.34175  0.33386
 *CO2             0.00161  0.00423
 C2H4             0.00001  0.00000
 HCN              0.00053  0.00015
 HNC              0.00001  0.00000
 *H2              0.26996  0.26472
 H2O              0.00357  0.00700
 NH3              0.00014  0.00013
 *N2              0.34820  0.34918
 C(gr)            0.02942  0.03461

  * THERMODYNAMIC PROPERTIES FITTED TO 20000.K

    PRODUCTS WHICH WERE CONSIDERED BUT WHOSE MOLE FRACTIONS
    WERE LESS THAN 5.000000E-06 FOR ALL ASSIGNED CONDITIONS

 *C              *CH             CH2             CH3             CH2OH          
 CH3O            CH3OH           CH3OOH          *CN             CNN            
 COOH            *C2             C2H             C2H2,acetylene  C2H2,vinylidene
 CH2CO,ketene    O(CH)2O         HO(CO)2OH       C2H3,vinyl      CH3CN          
 CH3CO,acetyl    C2H4O,ethylen-o CH3CHO,ethanal  CH3COOH         OHCH2COOH      
 C2H5            C2H6            CH3N2CH3        C2H5OH          CH3OCH3        
 CH3O2CH3        CCN             CNC             OCCN            C2N2           
 C2O             *C3             C3H3,1-propynl  C3H3,2-propynl  C3H4,allene    
 C3H4,propyne    C3H4,cyclo-     C3H5,allyl      C3H6,propylene  C3H6,cyclo-    
 C3H6O,propylox  C3H6O,acetone   C3H6O,propanal  C3H7,n-propyl   C3H7,i-propyl  
 C3H8            C3H8O,1propanol C3H8O,2propanol CNCOCN          C3O2           
 *C4             C4H2,butadiyne  C4H4,1,3-cyclo- C4H6,butadiene  C4H6,1butyne   
 C4H6,2butyne    C4H6,cyclo-     C4H8,1-butene   C4H8,cis2-buten C4H8,tr2-butene
 C4H8,isobutene  C4H8,cyclo-     (CH3COOH)2      C4H9,n-butyl    C4H9,i-butyl   
 C4H9,s-butyl    C4H9,t-butyl    C4H10,n-butane  C4H10,isobutane C4N2           
 *C5             C5H6,1,3cyclo-  C5H8,cyclo-     C5H10,1-pentene C5H10,cyclo-   
 C5H11,pentyl    C5H11,t-pentyl  C5H12,n-pentane C5H12,i-pentane CH3C(CH3)2CH3  
 C6H2            C6H5,phenyl     C6H5O,phenoxy   C6H6            C6H5OH,phenol  
 C6H10,cyclo-    C6H12,1-hexene  C6H12,cyclo-    C6H13,n-hexyl   C6H14,n-hexane 
 C7H7,benzyl     C7H8            C7H8O,cresol-mx C7H14,1-heptene C7H15,n-heptyl 
 C7H16,n-heptane C7H16,2-methylh C8H8,styrene    C8H10,ethylbenz C8H16,1-octene 
 C8H17,n-octyl   C8H18,n-octane  C8H18,isooctane C9H19,n-nonyl   C10H8,naphthale
 C10H21,n-decyl  C12H9,o-bipheny C12H10,biphenyl *H              HCO            
 HCCN            HCCO            HNCO            HNO             HNO2           
 HNO3            HO2             HCHO,formaldehy HCOOH           H2O2           
 (HCOOH)2        *N              NCO             *NH             NH2            
 NH2OH           *NO             NO2             NO3             NCN            
 N2H2            NH2NO2          N2H4            N2O             N2O3           
 N2O4            N2O5            N3              N3H             *O             
 *OH             *O2             O3              H2O(cr)         H2O(L)         

 NOTE. WEIGHT FRACTION OF FUEL IN TOTAL FUELS AND OF OXIDANT IN TOTAL OXIDANTS






 POINT ITN      T            C           H           N           O 

   1    2    1551.296      -2.253      -8.257     -11.838     -30.764

 Pinf/Pt = 1.819415
   2    4    1378.044      -2.036      -8.393     -11.952     -32.311

 Pinf/Pt = 1.801226
   2    2    1380.595      -2.039      -8.390     -11.950     -32.285

 Pinf/Pt = 1.801660
   2    2    1380.534      -2.039      -8.390     -11.950     -32.286






              THEORETICAL ROCKET PERFORMANCE ASSUMING EQUILIBRIUM

           COMPOSITION DURING EXPANSION FROM INFINITE AREA COMBUSTOR

 Pin =   464.1 PSIA
 CASE =                

             REACTANT                    WT FRACTION      ENERGY      TEMP
                                          (SEE NOTE)     KJ/KG-MOL      K  
 FUEL        C4H6,butadiene               1.0000000         0.000      0.000
 OXIDANT     N2O                          1.0000000         0.000      0.000

 O/F=    3.00000  %FUEL= 25.000000  R,EQ.RATIO= 2.983527  PHI,EQ.RATIO= 2.983527

                 CHAMBER   THROAT
 Pinf/P            1.0000   1.8017
 P, BAR            32.000   17.761
 T, K             1551.30  1380.53
 RHO, KG/CU M    5.2297 0 3.2869 0
 H, KJ/KG         0.00000  -338.47
 U, KJ/KG         -611.89  -878.83
 G, KJ/KG        -15456.1 -14093.2
 S, KJ/(KG)(K)     9.9633   9.9633

 M, (1/n)          21.079   21.242
 MW, MOL WT        20.459   20.505
 (dLV/dLP)t      -1.01000 -1.01670
 (dLV/dLT)p        1.0913   1.1849
 Cp, KJ/(KG)(K)    2.0615   2.5160
 GAMMAs            1.2786   1.2527
 SON VEL,M/SEC      884.5    822.8
 MACH NUMBER        0.000    1.000

 TRANSPORT PROPERTIES (GASES ONLY)
   CONDUCTIVITY IN UNITS OF MILLIWATTS/(CM)(K)

 VISC,MILLIPOISE  0.54529  0.50571

  WITH EQUILIBRIUM REACTIONS

 Cp, KJ/(KG)(K)    2.0236   2.3123
 CONDUCTIVITY      1.9233   1.9686
 PRANDTL NUMBER    0.5737   0.5940

  WITH FROZEN REACTIONS

 Cp, KJ/(KG)(K)    1.6813   1.6529
 CONDUCTIVITY      1.6582   1.4994
 PRANDTL NUMBER    0.5529   0.5575

 PERFORMANCE PARAMETERS

 Ae/At                      1.0000
 CSTAR, M/SEC               1183.3
 CF                         0.6953
 Ivac, M/SEC                1479.5
 Isp, M/SEC                  822.8


 MOLE FRACTIONS

 CH4              0.00491  0.00626
 *CO              0.34167  0.33367
 *CO2             0.00165  0.00430
 C2H4             0.00001  0.00000
 HCN              0.00053  0.00015
 HNC              0.00001  0.00000
 *H2              0.26969  0.26438
 H2O              0.00365  0.00713
 NH3              0.00015  0.00014
 *N2              0.34829  0.34927
 C(gr)            0.02943  0.03469

  * THERMODYNAMIC PROPERTIES FITTED TO 20000.K

    PRODUCTS WHICH WERE CONSIDERED BUT WHOSE MOLE FRACTIONS
    WERE LESS THAN 5.000000E-06 FOR ALL ASSIGNED CONDITIONS

 *C              *CH             CH2             CH3             CH2OH          
 CH3O            CH3OH           CH3OOH          *CN             CNN            
 COOH            *C2             C2H             C2H2,acetylene  C2H2,vinylidene
 CH2CO,ketene    O(CH)2O         HO(CO)2OH       C2H3,vinyl      CH3CN          
 CH3CO,acetyl    C2H4O,ethylen-o CH3CHO,ethanal  CH3COOH         OHCH2COOH      
 C2H5            C2H6            CH3N2CH3        C2H5OH          CH3OCH3        
 CH3O2CH3        CCN             CNC             OCCN            C2N2           
 C2O             *C3             C3H3,1-propynl  C3H3,2-propynl  C3H4,allene    
 C3H4,propyne    C3H4,cyclo-     C3H5,allyl      C3H6,propylene  C3H6,cyclo-    
 C3H6O,propylox  C3H6O,acetone   C3H6O,propanal  C3H7,n-propyl   C3H7,i-propyl  
 C3H8            C3H8O,1propanol C3H8O,2propanol CNCOCN          C3O2           
 *C4             C4H2,butadiyne  C4H4,1,3-cyclo- C4H6,butadiene  C4H6,1butyne   
 C4H6,2butyne    C4H6,cyclo-     C4H8,1-butene   C4H8,cis2-buten C4H8,tr2-butene
 C4H8,isobutene  C4H8,cyclo-     (CH3COOH)2      C4H9,n-butyl    C4H9,i-butyl   
 C4H9,s-butyl    C4H9,t-butyl    C4H10,n-butane  C4H10,isobutane C4N2           
 *C5             C5H6,1,3cyclo-  C5H8,cyclo-     C5H10,1-pentene C5H10,cyclo-   
 C5H11,pentyl    C5H11,t-pentyl  C5H12,n-pentane C5H12,i-pentane CH3C(CH3)2CH3  
 C6H2            C6H5,phenyl     C6H5O,phenoxy   C6H6            C6H5OH,phenol  
 C6H10,cyclo-    C6H12,1-hexene  C6H12,cyclo-    C6H13,n-hexyl   C6H14,n-hexane 
 C7H7,benzyl     C7H8            C7H8O,cresol-mx C7H14,1-heptene C7H15,n-heptyl 
 C7H16,n-heptane C7H16,2-methylh C8H8,styrene    C8H10,ethylbenz C8H16,1-octene 
 C8H17,n-octyl   C8H18,n-octane  C8H18,isooctane C9H19,n-nonyl   C10H8,naphthale
 C10H21,n-decyl  C12H9,o-bipheny C12H10,biphenyl *H              HCO            
 HCCN            HCCO            HNCO            HNO             HNO2           
 HNO3            HO2             HCHO,formaldehy HCOOH           H2O2           
 (HCOOH)2        *N              NCO             *NH             NH2            
 NH2OH           *NO             NO2             NO3             NCN            
 N2H2            NH2NO2          N2H4            N2O             N2O3           
 N2O4            N2O5            N3              N3H             *O             
 *OH             *O2             O3              H2O(cr)         H2O(L)         

 NOTE. WEIGHT FRACTION OF FUEL IN TOTAL FUELS AND OF OXIDANT IN TOTAL OXIDANTS






 POINT ITN      T            C           H           N           O 

   1    2    1552.138      -2.255      -8.243     -11.823     -30.729

 Pinf/Pt = 1.819116
   2    4    1379.269      -2.037      -8.379     -11.938     -32.273

 Pinf/Pt = 1.800866
   2    2    1381.824      -2.041      -8.376     -11.936     -32.247

 Pinf/Pt = 1.801299
   2    2    1381.763      -2.041      -8.377     -11.936     -32.248






              THEORETICAL ROCKET PERFORMANCE ASSUMING EQUILIBRIUM

           COMPOSITION DURING EXPANSION FROM INFINITE AREA COMBUSTOR

 Pin =   478.6 PSIA
 CASE =                

             REACTANT                    WT FRACTION      ENERGY      TEMP
                                          (SEE NOTE)     KJ/KG-MOL      K  
 FUEL        C4H6,butadiene               1.0000000         0.000      0.000
 OXIDANT     N2O                          1.0000000         0.000      0.000

 O/F=    3.00000  %FUEL= 25.000000  R,EQ.RATIO= 2.983527  PHI,EQ.RATIO= 2.983527

                 CHAMBER   THROAT
 Pinf/P            1.0000   1.8013
 P, BAR            33.000   18.320
 T, K             1552.14  1381.76
 RHO, KG/CU M    5.3916 0 3.3885 0
 H, KJ/KG         0.00000  -338.49
 U, KJ/KG         -612.06  -879.14
 G, KJ/KG        -15445.6 -14088.7
 S, KJ/(KG)(K)     9.9512   9.9512

 M, (1/n)          21.085   21.249
 MW, MOL WT        20.464   20.511
 (dLV/dLP)t      -1.01023 -1.01700
 (dLV/dLT)p        1.0934   1.1879
 Cp, KJ/(KG)(K)    2.0693   2.5289
 GAMMAs            1.2781   1.2521
 SON VEL,M/SEC      884.5    822.8
 MACH NUMBER        0.000    1.000

 TRANSPORT PROPERTIES (GASES ONLY)
   CONDUCTIVITY IN UNITS OF MILLIWATTS/(CM)(K)

 VISC,MILLIPOISE  0.54548  0.50601

  WITH EQUILIBRIUM REACTIONS

 Cp, KJ/(KG)(K)    2.0309   2.3232
 CONDUCTIVITY      1.9294   1.9776
 PRANDTL NUMBER    0.5742   0.5944

  WITH FROZEN REACTIONS

 Cp, KJ/(KG)(K)    1.6815   1.6532
 CONDUCTIVITY      1.6585   1.5000
 PRANDTL NUMBER    0.5530   0.5577

 PERFORMANCE PARAMETERS

 Ae/At                      1.0000
 CSTAR, M/SEC               1183.6
 CF                         0.6951
 Ivac, M/SEC                1479.9
 Isp, M/SEC                  822.8


 MOLE FRACTIONS

 CH4              0.00503  0.00639
 *CO              0.34159  0.33348
 *CO2             0.00169  0.00438
 C2H4             0.00001  0.00000
 HCN              0.00054  0.00015
 HNC              0.00001  0.00000
 *H2              0.26941  0.26404
 H2O              0.00374  0.00727
 NH3              0.00015  0.00014
 *N2              0.34837  0.34936
 C(gr)            0.02944  0.03477

  * THERMODYNAMIC PROPERTIES FITTED TO 20000.K

    PRODUCTS WHICH WERE CONSIDERED BUT WHOSE MOLE FRACTIONS
    WERE LESS THAN 5.000000E-06 FOR ALL ASSIGNED CONDITIONS

 *C              *CH             CH2             CH3             CH2OH          
 CH3O            CH3OH           CH3OOH          *CN             CNN            
 COOH            *C2             C2H             C2H2,acetylene  C2H2,vinylidene
 CH2CO,ketene    O(CH)2O         HO(CO)2OH       C2H3,vinyl      CH3CN          
 CH3CO,acetyl    C2H4O,ethylen-o CH3CHO,ethanal  CH3COOH         OHCH2COOH      
 C2H5            C2H6            CH3N2CH3        C2H5OH          CH3OCH3        
 CH3O2CH3        CCN             CNC             OCCN            C2N2           
 C2O             *C3             C3H3,1-propynl  C3H3,2-propynl  C3H4,allene    
 C3H4,propyne    C3H4,cyclo-     C3H5,allyl      C3H6,propylene  C3H6,cyclo-    
 C3H6O,propylox  C3H6O,acetone   C3H6O,propanal  C3H7,n-propyl   C3H7,i-propyl  
 C3H8            C3H8O,1propanol C3H8O,2propanol CNCOCN          C3O2           
 *C4             C4H2,butadiyne  C4H4,1,3-cyclo- C4H6,butadiene  C4H6,1butyne   
 C4H6,2butyne    C4H6,cyclo-     C4H8,1-butene   C4H8,cis2-buten C4H8,tr2-butene
 C4H8,isobutene  C4H8,cyclo-     (CH3COOH)2      C4H9,n-butyl    C4H9,i-butyl   
 C4H9,s-butyl    C4H9,t-butyl    C4H10,n-butane  C4H10,isobutane C4N2           
 *C5             C5H6,1,3cyclo-  C5H8,cyclo-     C5H10,1-pentene C5H10,cyclo-   
 C5H11,pentyl    C5H11,t-pentyl  C5H12,n-pentane C5H12,i-pentane CH3C(CH3)2CH3  
 C6H2            C6H5,phenyl     C6H5O,phenoxy   C6H6            C6H5OH,phenol  
 C6H10,cyclo-    C6H12,1-hexene  C6H12,cyclo-    C6H13,n-hexyl   C6H14,n-hexane 
 C7H7,benzyl     C7H8            C7H8O,cresol-mx C7H14,1-heptene C7H15,n-heptyl 
 C7H16,n-heptane C7H16,2-methylh C8H8,styrene    C8H10,ethylbenz C8H16,1-octene 
 C8H17,n-octyl   C8H18,n-octane  C8H18,isooctane C9H19,n-nonyl   C10H8,naphthale
 C10H21,n-decyl  C12H9,o-bipheny C12H10,biphenyl *H              HCO            
 HCCN            HCCO            HNCO            HNO             HNO2           
 HNO3            HO2             HCHO,formaldehy HCOOH           H2O2           
 (HCOOH)2        *N              NCO             *NH             NH2            
 NH2OH           *NO             NO2             NO3             NCN            
 N2H2            NH2NO2          N2H4            N2O             N2O3           
 N2O4            N2O5            N3              N3H             *O             
 *OH             *O2             O3              H2O(cr)         H2O(L)         

 NOTE. WEIGHT FRACTION OF FUEL IN TOTAL FUELS AND OF OXIDANT IN TOTAL OXIDANTS






 POINT ITN      T            C           H           N           O 

   1    2    1552.970      -2.256      -8.229     -11.809     -30.696

 Pinf/Pt = 1.818824
   2    4    1380.471      -2.039      -8.366     -11.924     -32.236

 Pinf/Pt = 1.800520
   2    2    1383.029      -2.042      -8.363     -11.922     -32.210

 Pinf/Pt = 1.800953
   2    2    1382.968      -2.042      -8.363     -11.922     -32.211






              THEORETICAL ROCKET PERFORMANCE ASSUMING EQUILIBRIUM

           COMPOSITION DURING EXPANSION FROM INFINITE AREA COMBUSTOR

 Pin =   493.1 PSIA
 CASE =                

             REACTANT                    WT FRACTION      ENERGY      TEMP
                                          (SEE NOTE)     KJ/KG-MOL      K  
 FUEL        C4H6,butadiene               1.0000000         0.000      0.000
 OXIDANT     N2O                          1.0000000         0.000      0.000

 O/F=    3.00000  %FUEL= 25.000000  R,EQ.RATIO= 2.983527  PHI,EQ.RATIO= 2.983527

                 CHAMBER   THROAT
 Pinf/P            1.0000   1.8010
 P, BAR            34.000   18.879
 T, K             1552.97  1382.97
 RHO, KG/CU M    5.5535 0 3.4900 0
 H, KJ/KG         0.00000  -338.51
 U, KJ/KG         -612.23  -879.45
 G, KJ/KG        -15435.6 -14084.4
 S, KJ/(KG)(K)     9.9394   9.9394

 M, (1/n)          21.090   21.257
 MW, MOL WT        20.469   20.516
 (dLV/dLP)t      -1.01045 -1.01728
 (dLV/dLT)p        1.0954   1.1909
 Cp, KJ/(KG)(K)    2.0770   2.5414
 GAMMAs            1.2776   1.2515
 SON VEL,M/SEC      884.4    822.8
 MACH NUMBER        0.000    1.000

 TRANSPORT PROPERTIES (GASES ONLY)
   CONDUCTIVITY IN UNITS OF MILLIWATTS/(CM)(K)

 VISC,MILLIPOISE  0.54568  0.50631

  WITH EQUILIBRIUM REACTIONS

 Cp, KJ/(KG)(K)    2.0381   2.3338
 CONDUCTIVITY      1.9355   1.9864
 PRANDTL NUMBER    0.5746   0.5949

  WITH FROZEN REACTIONS

 Cp, KJ/(KG)(K)    1.6817   1.6535
 CONDUCTIVITY      1.6588   1.5006
 PRANDTL NUMBER    0.5532   0.5579

 PERFORMANCE PARAMETERS

 Ae/At                      1.0000
 CSTAR, M/SEC               1184.0
 CF                         0.6949
 Ivac, M/SEC                1480.2
 Isp, M/SEC                  822.8


 MOLE FRACTIONS

 CH4              0.00516  0.00653
 *CO              0.34151  0.33330
 *CO2             0.00173  0.00445
 C2H4             0.00001  0.00000
 HCN              0.00054  0.00016
 HNC              0.00001  0.00000
 *H2              0.26914  0.26371
 H2O              0.00383  0.00740
 NH3              0.00015  0.00014
 *N2              0.34845  0.34946
 C(gr)            0.02945  0.03485

  * THERMODYNAMIC PROPERTIES FITTED TO 20000.K

    PRODUCTS WHICH WERE CONSIDERED BUT WHOSE MOLE FRACTIONS
    WERE LESS THAN 5.000000E-06 FOR ALL ASSIGNED CONDITIONS

 *C              *CH             CH2             CH3             CH2OH          
 CH3O            CH3OH           CH3OOH          *CN             CNN            
 COOH            *C2             C2H             C2H2,acetylene  C2H2,vinylidene
 CH2CO,ketene    O(CH)2O         HO(CO)2OH       C2H3,vinyl      CH3CN          
 CH3CO,acetyl    C2H4O,ethylen-o CH3CHO,ethanal  CH3COOH         OHCH2COOH      
 C2H5            C2H6            CH3N2CH3        C2H5OH          CH3OCH3        
 CH3O2CH3        CCN             CNC             OCCN            C2N2           
 C2O             *C3             C3H3,1-propynl  C3H3,2-propynl  C3H4,allene    
 C3H4,propyne    C3H4,cyclo-     C3H5,allyl      C3H6,propylene  C3H6,cyclo-    
 C3H6O,propylox  C3H6O,acetone   C3H6O,propanal  C3H7,n-propyl   C3H7,i-propyl  
 C3H8            C3H8O,1propanol C3H8O,2propanol CNCOCN          C3O2           
 *C4             C4H2,butadiyne  C4H4,1,3-cyclo- C4H6,butadiene  C4H6,1butyne   
 C4H6,2butyne    C4H6,cyclo-     C4H8,1-butene   C4H8,cis2-buten C4H8,tr2-butene
 C4H8,isobutene  C4H8,cyclo-     (CH3COOH)2      C4H9,n-butyl    C4H9,i-butyl   
 C4H9,s-butyl    C4H9,t-butyl    C4H10,n-butane  C4H10,isobutane C4N2           
 *C5             C5H6,1,3cyclo-  C5H8,cyclo-     C5H10,1-pentene C5H10,cyclo-   
 C5H11,pentyl    C5H11,t-pentyl  C5H12,n-pentane C5H12,i-pentane CH3C(CH3)2CH3  
 C6H2            C6H5,phenyl     C6H5O,phenoxy   C6H6            C6H5OH,phenol  
 C6H10,cyclo-    C6H12,1-hexene  C6H12,cyclo-    C6H13,n-hexyl   C6H14,n-hexane 
 C7H7,benzyl     C7H8            C7H8O,cresol-mx C7H14,1-heptene C7H15,n-heptyl 
 C7H16,n-heptane C7H16,2-methylh C8H8,styrene    C8H10,ethylbenz C8H16,1-octene 
 C8H17,n-octyl   C8H18,n-octane  C8H18,isooctane C9H19,n-nonyl   C10H8,naphthale
 C10H21,n-decyl  C12H9,o-bipheny C12H10,biphenyl *H              HCO            
 HCCN            HCCO            HNCO            HNO             HNO2           
 HNO3            HO2             HCHO,formaldehy HCOOH           H2O2           
 (HCOOH)2        *N              NCO             *NH             NH2            
 NH2OH           *NO             NO2             NO3             NCN            
 N2H2            NH2NO2          N2H4            N2O             N2O3           
 N2O4            N2O5            N3              N3H             *O             
 *OH             *O2             O3              H2O(cr)         H2O(L)         

 NOTE. WEIGHT FRACTION OF FUEL IN TOTAL FUELS AND OF OXIDANT IN TOTAL OXIDANTS






 POINT ITN      T            C           H           N           O 

   1    2    1553.792      -2.257      -8.216     -11.795     -30.663

 Pinf/Pt = 1.818539
   2    4    1381.650      -2.040      -8.353     -11.910     -32.200

 Pinf/Pt = 1.800187
   2    2    1384.211      -2.044      -8.350     -11.908     -32.174

 Pinf/Pt = 1.800620
   2    2    1384.150      -2.044      -8.351     -11.908     -32.175






              THEORETICAL ROCKET PERFORMANCE ASSUMING EQUILIBRIUM

           COMPOSITION DURING EXPANSION FROM INFINITE AREA COMBUSTOR

 Pin =   507.6 PSIA
 CASE =                

             REACTANT                    WT FRACTION      ENERGY      TEMP
                                          (SEE NOTE)     KJ/KG-MOL      K  
 FUEL        C4H6,butadiene               1.0000000         0.000      0.000
 OXIDANT     N2O                          1.0000000         0.000      0.000

 O/F=    3.00000  %FUEL= 25.000000  R,EQ.RATIO= 2.983527  PHI,EQ.RATIO= 2.983527

                 CHAMBER   THROAT
 Pinf/P            1.0000   1.8006
 P, BAR            35.000   19.438
 T, K             1553.79  1384.15
 RHO, KG/CU M    5.7152 0 3.5915 0
 H, KJ/KG         0.00000  -338.53
 U, KJ/KG         -612.40  -879.75
 G, KJ/KG        -15426.1 -14080.4
 S, KJ/(KG)(K)     9.9280   9.9280

 M, (1/n)          21.096   21.264
 MW, MOL WT        20.474   20.522
 (dLV/dLP)t      -1.01067 -1.01756
 (dLV/dLT)p        1.0974   1.1937
 Cp, KJ/(KG)(K)    2.0845   2.5536
 GAMMAs            1.2771   1.2510
 SON VEL,M/SEC      884.4    822.8
 MACH NUMBER        0.000    1.000

 TRANSPORT PROPERTIES (GASES ONLY)
   CONDUCTIVITY IN UNITS OF MILLIWATTS/(CM)(K)

 VISC,MILLIPOISE  0.54587  0.50660

  WITH EQUILIBRIUM REACTIONS

 Cp, KJ/(KG)(K)    2.0452   2.3442
 CONDUCTIVITY      1.9415   1.9950
 PRANDTL NUMBER    0.5750   0.5953

  WITH FROZEN REACTIONS

 Cp, KJ/(KG)(K)    1.6819   1.6537
 CONDUCTIVITY      1.6591   1.5011
 PRANDTL NUMBER    0.5534   0.5581

 PERFORMANCE PARAMETERS

 Ae/At                      1.0000
 CSTAR, M/SEC               1184.3
 CF                         0.6948
 Ivac, M/SEC                1480.6
 Isp, M/SEC                  822.8


 MOLE FRACTIONS

 CH4              0.00528  0.00666
 *CO              0.34144  0.33312
 *CO2             0.00177  0.00452
 C2H4             0.00001  0.00000
 HCN              0.00054  0.00016
 HNC              0.00001  0.00000
 *H2              0.26888  0.26339
 H2O              0.00392  0.00753
 NH3              0.00016  0.00015
 *N2              0.34854  0.34955
 C(gr)            0.02945  0.03492

  * THERMODYNAMIC PROPERTIES FITTED TO 20000.K

    PRODUCTS WHICH WERE CONSIDERED BUT WHOSE MOLE FRACTIONS
    WERE LESS THAN 5.000000E-06 FOR ALL ASSIGNED CONDITIONS

 *C              *CH             CH2             CH3             CH2OH          
 CH3O            CH3OH           CH3OOH          *CN             CNN            
 COOH            *C2             C2H             C2H2,acetylene  C2H2,vinylidene
 CH2CO,ketene    O(CH)2O         HO(CO)2OH       C2H3,vinyl      CH3CN          
 CH3CO,acetyl    C2H4O,ethylen-o CH3CHO,ethanal  CH3COOH         OHCH2COOH      
[...]
 RHO, KG/CU M    4.9881 0 3.0942 0
 H, KJ/KG         0.00000  -376.04
 U, KJ/KG         -681.62  -991.16
 G, KJ/KG        -20664.9 -19052.8
 S, KJ/(KG)(K)     8.5055   8.5055

 M, (1/n)          29.636   29.681
 MW, MOL WT        29.636   29.681
 (dLV/dLP)t      -1.00100 -1.00038
 (dLV/dLT)p        1.0275   1.0116
 Cp, KJ/(KG)(K)    1.7160   1.5709
 GAMMAs            1.2071   1.2227
 SON VEL,M/SEC      907.1    867.2
 MACH NUMBER        0.000    1.000

 TRANSPORT PROPERTIES (GASES ONLY)
   CONDUCTIVITY IN UNITS OF MILLIWATTS/(CM)(K)

 VISC,MILLIPOISE  0.81235  0.75785

  WITH EQUILIBRIUM REACTIONS

 Cp, KJ/(KG)(K)    1.7160   1.5709
 CONDUCTIVITY      1.9963   1.6572
 PRANDTL NUMBER    0.6983   0.7184

  WITH FROZEN REACTIONS

 Cp, KJ/(KG)(K)    1.4260   1.4112
 CONDUCTIVITY      1.5871   1.4545
 PRANDTL NUMBER    0.7299   0.7353

 PERFORMANCE PARAMETERS

 Ae/At                      1.0000
 CSTAR, M/SEC               1267.1
 CF                         0.6844
 Ivac, M/SEC                1576.5
 Isp, M/SEC                  867.2


 MOLE FRACTIONS

 *CO              0.00190  0.00059
 *CO2             0.14421  0.14574
 *H               0.00005  0.00001
 HO2              0.00002  0.00001
 *H2              0.00024  0.00008
 H2O              0.10700  0.10849
 *NO              0.01281  0.00803
 NO2              0.00005  0.00003
 *N2              0.62203  0.62538
 *O               0.00057  0.00020
 *OH              0.00462  0.00232
 *O2              0.10650  0.10911

  * THERMODYNAMIC PROPERTIES FITTED TO 20000.K

    PRODUCTS WHICH WERE CONSIDERED BUT WHOSE MOLE FRACTIONS
    WERE LESS THAN 5.000000E-06 FOR ALL ASSIGNED CONDITIONS

 *C              *CH             CH2             CH3             CH2OH          
 CH3O            CH4             CH3OH           CH3OOH          *CN            
 CNN             COOH            *C2             C2H             C2H2,acetylene 
 C2H2,vinylidene CH2CO,ketene    O(CH)2O         HO(CO)2OH       C2H3,vinyl     
 CH3CN           CH3CO,acetyl    C2H4            C2H4O,ethylen-o CH3CHO,ethanal 
 CH3COOH         OHCH2COOH       C2H5            C2H6            CH3N2CH3       
 C2H5OH          CH3OCH3         CH3O2CH3        CCN             CNC            
 OCCN            C2N2            C2O             *C3             C3H3,1-propynl 
 C3H3,2-propynl  C3H4,allene     C3H4,propyne    C3H4,cyclo-     C3H5,allyl     
 C3H6,propylene  C3H6,cyclo-     C3H6O,propylox  C3H6O,acetone   C3H6O,propanal 
 C3H7,n-propyl   C3H7,i-propyl   C3H8            C3H8O,1propanol C3H8O,2propanol
 CNCOCN          C3O2            *C4             C4H2,butadiyne  C4H4,1,3-cyclo-
 C4H6,butadiene  C4H6,1butyne    C4H6,2butyne    C4H6,cyclo-     C4H8,1-butene  
 C4H8,cis2-buten C4H8,tr2-butene C4H8,isobutene  C4H8,cyclo-     (CH3COOH)2     
 C4H9,n-butyl    C4H9,i-butyl    C4H9,s-butyl    C4H9,t-butyl    C4H10,n-butane 
 C4H10,isobutane C4N2            *C5             C5H6,1,3cyclo-  C5H8,cyclo-    
 C5H10,1-pentene C5H10,cyclo-    C5H11,pentyl    C5H11,t-pentyl  C5H12,n-pentane
 C5H12,i-pentane CH3C(CH3)2CH3   C6H2            C6H5,phenyl     C6H5O,phenoxy  
 C6H6            C6H5OH,phenol   C6H10,cyclo-    C6H12,1-hexene  C6H12,cyclo-   
 C6H13,n-hexyl   C6H14,n-hexane  C7H7,benzyl     C7H8            C7H8O,cresol-mx
 C7H14,1-heptene C7H15,n-heptyl  C7H16,n-heptane C7H16,2-methylh C8H8,styrene   
 C8H10,ethylbenz C8H16,1-octene  C8H17,n-octyl   C8H18,n-octane  C8H18,isooctane
 C9H19,n-nonyl   C10H8,naphthale C10H21,n-decyl  C12H9,o-bipheny C12H10,biphenyl
 HCN             HCO             HCCN            HCCO            HNC            
 HNCO            HNO             HNO2            HNO3            HCHO,formaldehy
 HCOOH           H2O2            (HCOOH)2        *N              NCO            
 *NH             NH2             NH3             NH2OH           NO3            
 NCN             N2H2            NH2NO2          N2H4            N2O            
 N2O3            N2O4            N2O5            N3              N3H            
 O3              C(gr)           H2O(cr)         H2O(L)         

 NOTE. WEIGHT FRACTION OF FUEL IN TOTAL FUELS AND OF OXIDANT IN TOTAL OXIDANTS






 POINT ITN      T            C           H           N           O 

   1    2    2429.912     -22.500     -12.464     -12.268     -14.081

 Pinf/Pt = 1.776040
   2    4    2198.271     -24.361     -13.097     -12.377     -14.171

 Pinf/Pt = 1.786355
   2    2    2195.975     -24.382     -13.104     -12.378     -14.171

 Pinf/Pt = 1.786449
   2    1    2195.955     -24.382     -13.104     -12.378     -14.171






              THEORETICAL ROCKET PERFORMANCE ASSUMING EQUILIBRIUM

           COMPOSITION DURING EXPANSION FROM INFINITE AREA COMBUSTOR

 Pin =   507.6 PSIA
 CASE =                

             REACTANT                    WT FRACTION      ENERGY      TEMP
                                          (SEE NOTE)     KJ/KG-MOL      K  
 FUEL        C4H6,butadiene               1.0000000         0.000      0.000
 OXIDANT     N2O                          1.0000000         0.000      0.000

 O/F=   14.00000  %FUEL=  6.666667  R,EQ.RATIO= 0.639327  PHI,EQ.RATIO= 0.639327

                 CHAMBER   THROAT
 Pinf/P            1.0000   1.7864
 P, BAR            35.000   19.592
 T, K             2429.91  2195.95
 RHO, KG/CU M    5.1343 0 3.1849 0
 H, KJ/KG         0.00000  -376.09
 U, KJ/KG         -681.70  -991.24
 G, KJ/KG        -20647.8 -19035.9
 S, KJ/(KG)(K)     8.4973   8.4973

 M, (1/n)          29.637   29.681
 MW, MOL WT        29.637   29.681
 (dLV/dLP)t      -1.00099 -1.00037
 (dLV/dLT)p        1.0272   1.0115
 Cp, KJ/(KG)(K)    1.7137   1.5698
 GAMMAs            1.2073   1.2228
 SON VEL,M/SEC      907.2    867.3
 MACH NUMBER        0.000    1.000

 TRANSPORT PROPERTIES (GASES ONLY)
   CONDUCTIVITY IN UNITS OF MILLIWATTS/(CM)(K)

 VISC,MILLIPOISE  0.81243  0.75788

  WITH EQUILIBRIUM REACTIONS

 Cp, KJ/(KG)(K)    1.7137   1.5698
 CONDUCTIVITY      1.9929   1.6557
 PRANDTL NUMBER    0.6986   0.7186

  WITH FROZEN REACTIONS

 Cp, KJ/(KG)(K)    1.4261   1.4112
 CONDUCTIVITY      1.5873   1.4545
 PRANDTL NUMBER    0.7299   0.7353

 PERFORMANCE PARAMETERS

 Ae/At                      1.0000
 CSTAR, M/SEC               1267.1
 CF                         0.6845
 Ivac, M/SEC                1576.6
 Isp, M/SEC                  867.3


 MOLE FRACTIONS

 *CO              0.00188  0.00058
 *CO2             0.14424  0.14575
 *H               0.00005  0.00001
 HO2              0.00002  0.00001
 *H2              0.00023  0.00008
 H2O              0.10702  0.10850
 *NO              0.01282  0.00804
 NO2              0.00005  0.00003
 *N2              0.62204  0.62538
 *O               0.00056  0.00020
 *OH              0.00459  0.00231
 *O2              0.10650  0.10911

  * THERMODYNAMIC PROPERTIES FITTED TO 20000.K

    PRODUCTS WHICH WERE CONSIDERED BUT WHOSE MOLE FRACTIONS
    WERE LESS THAN 5.000000E-06 FOR ALL ASSIGNED CONDITIONS

 *C              *CH             CH2             CH3             CH2OH          
 CH3O            CH4             CH3OH           CH3OOH          *CN            
 CNN             COOH            *C2             C2H             C2H2,acetylene 
 C2H2,vinylidene CH2CO,ketene    O(CH)2O         HO(CO)2OH       C2H3,vinyl     
 CH3CN           CH3CO,acetyl    C2H4            C2H4O,ethylen-o CH3CHO,ethanal 
 CH3COOH         OHCH2COOH       C2H5            C2H6            CH3N2CH3       
 C2H5OH          CH3OCH3         CH3O2CH3        CCN             CNC            
 OCCN            C2N2            C2O             *C3             C3H3,1-propynl 
 C3H3,2-propynl  C3H4,allene     C3H4,propyne    C3H4,cyclo-     C3H5,allyl     
 C3H6,propylene  C3H6,cyclo-     C3H6O,propylox  C3H6O,acetone   C3H6O,propanal 
 C3H7,n-propyl   C3H7,i-propyl   C3H8            C3H8O,1propanol C3H8O,2propanol
 CNCOCN          C3O2            *C4             C4H2,butadiyne  C4H4,1,3-cyclo-
 C4H6,butadiene  C4H6,1butyne    C4H6,2butyne    C4H6,cyclo-     C4H8,1-butene  
 C4H8,cis2-buten C4H8,tr2-butene C4H8,isobutene  C4H8,cyclo-     (CH3COOH)2     
 C4H9,n-butyl    C4H9,i-butyl    C4H9,s-butyl    C4H9,t-butyl    C4H10,n-butane 
 C4H10,isobutane C4N2            *C5             C5H6,1,3cyclo-  C5H8,cyclo-    
 C5H10,1-pentene C5H10,cyclo-    C5H11,pentyl    C5H11,t-pentyl  C5H12,n-pentane
 C5H12,i-pentane CH3C(CH3)2CH3   C6H2            C6H5,phenyl     C6H5O,phenoxy  
 C6H6            C6H5OH,phenol   C6H10,cyclo-    C6H12,1-hexene  C6H12,cyclo-   
 C6H13,n-hexyl   C6H14,n-hexane  C7H7,benzyl     C7H8            C7H8O,cresol-mx
 C7H14,1-heptene C7H15,n-heptyl  C7H16,n-heptane C7H16,2-methylh C8H8,styrene   
 C8H10,ethylbenz C8H16,1-octene  C8H17,n-octyl   C8H18,n-octane  C8H18,isooctane
 C9H19,n-nonyl   C10H8,naphthale C10H21,n-decyl  C12H9,o-bipheny C12H10,biphenyl
 HCN             HCO             HCCN            HCCO            HNC            
 HNCO            HNO             HNO2            HNO3            HCHO,formaldehy
 HCOOH           H2O2            (HCOOH)2        *N              NCO            
 *NH             NH2             NH3             NH2OH           NO3            
 NCN             N2H2            NH2NO2          N2H4            N2O            
 N2O3            N2O4            N2O5            N3              N3H            
 O3              C(gr)           H2O(cr)         H2O(L)         

 NOTE. WEIGHT FRACTION OF FUEL IN TOTAL FUELS AND OF OXIDANT IN TOTAL OXIDANTS






 POINT ITN      T            C           H           N           O 

   1    2    2430.215     -22.497     -12.456     -12.254     -14.067

 Pinf/Pt = 1.776155
   2    4    2198.357     -24.360     -13.089     -12.363     -14.157

 Pinf/Pt = 1.786423
   2    2    2196.070     -24.381     -13.096     -12.364     -14.157

 Pinf/Pt = 1.786516
   2    1    2196.050     -24.381     -13.096     -12.364     -14.157






              THEORETICAL ROCKET PERFORMANCE ASSUMING EQUILIBRIUM

           COMPOSITION DURING EXPANSION FROM INFINITE AREA COMBUSTOR

 Pin =   522.1 PSIA
 CASE =                

             REACTANT                    WT FRACTION      ENERGY      TEMP
                                          (SEE NOTE)     KJ/KG-MOL      K  
 FUEL        C4H6,butadiene               1.0000000         0.000      0.000
 OXIDANT     N2O                          1.0000000         0.000      0.000

 O/F=   14.00000  %FUEL=  6.666667  R,EQ.RATIO= 0.639327  PHI,EQ.RATIO= 0.639327

                 CHAMBER   THROAT
 Pinf/P            1.0000   1.7865
 P, BAR            36.000   20.151
 T, K             2430.22  2196.05
 RHO, KG/CU M    5.2804 0 3.2757 0
 H, KJ/KG         0.00000  -376.14
 U, KJ/KG         -681.76  -991.31
 G, KJ/KG        -20631.2 -19019.4
 S, KJ/(KG)(K)     8.4894   8.4894

 M, (1/n)          29.638   29.682
 MW, MOL WT        29.638   29.682
 (dLV/dLP)t      -1.00098 -1.00037
 (dLV/dLT)p        1.0269   1.0114
 Cp, KJ/(KG)(K)    1.7116   1.5688
 GAMMAs            1.2075   1.2229
 SON VEL,M/SEC      907.3    867.3
 MACH NUMBER        0.000    1.000

 TRANSPORT PROPERTIES (GASES ONLY)
   CONDUCTIVITY IN UNITS OF MILLIWATTS/(CM)(K)

 VISC,MILLIPOISE  0.81250  0.75790

  WITH EQUILIBRIUM REACTIONS

 Cp, KJ/(KG)(K)    1.7116   1.5688
 CONDUCTIVITY      1.9896   1.6542
 PRANDTL NUMBER    0.6989   0.7188

  WITH FROZEN REACTIONS

 Cp, KJ/(KG)(K)    1.4261   1.4112
 CONDUCTIVITY      1.5875   1.4546
 PRANDTL NUMBER    0.7299   0.7353

 PERFORMANCE PARAMETERS

 Ae/At                      1.0000
 CSTAR, M/SEC               1267.1
 CF                         0.6845
 Ivac, M/SEC                1576.6
 Isp, M/SEC                  867.3


 MOLE FRACTIONS

 *CO              0.00185  0.00058
 *CO2             0.14426  0.14576
 *H               0.00005  0.00001
 HO2              0.00002  0.00001
 *H2              0.00023  0.00008
 H2O              0.10704  0.10851
 *NO              0.01283  0.00804
 NO2              0.00005  0.00003
 *N2              0.62206  0.62539
 *O               0.00055  0.00019
 *OH              0.00456  0.00229
 *O2              0.10649  0.10911

  * THERMODYNAMIC PROPERTIES FITTED TO 20000.K

    PRODUCTS WHICH WERE CONSIDERED BUT WHOSE MOLE FRACTIONS
    WERE LESS THAN 5.000000E-06 FOR ALL ASSIGNED CONDITIONS

 *C              *CH             CH2             CH3             CH2OH          
 CH3O            CH4             CH3OH           CH3OOH          *CN            
 CNN             COOH            *C2             C2H             C2H2,acetylene 
 C2H2,vinylidene CH2CO,ketene    O(CH)2O         HO(CO)2OH       C2H3,vinyl     
 CH3CN           CH3CO,acetyl    C2H4            C2H4O,ethylen-o CH3CHO,ethanal 
 CH3COOH         OHCH2COOH       C2H5            C2H6            CH3N2CH3       
 C2H5OH          CH3OCH3         CH3O2CH3        CCN             CNC            
 OCCN            C2N2            C2O             *C3             C3H3,1-propynl 
 C3H3,2-propynl  C3H4,allene     C3H4,propyne    C3H4,cyclo-     C3H5,allyl     
 C3H6,propylene  C3H6,cyclo-     C3H6O,propylox  C3H6O,acetone   C3H6O,propanal 
 C3H7,n-propyl   C3H7,i-propyl   C3H8            C3H8O,1propanol C3H8O,2propanol
 CNCOCN          C3O2            *C4             C4H2,butadiyne  C4H4,1,3-cyclo-
 C4H6,butadiene  C4H6,1butyne    C4H6,2butyne    C4H6,cyclo-     C4H8,1-butene  
 C4H8,cis2-buten C4H8,tr2-butene C4H8,isobutene  C4H8,cyclo-     (CH3COOH)2     
 C4H9,n-butyl    C4H9,i-butyl    C4H9,s-butyl    C4H9,t-butyl    C4H10,n-butane 
 C4H10,isobutane C4N2            *C5             C5H6,1,3cyclo-  C5H8,cyclo-    
 C5H10,1-pentene C5H10,cyclo-    C5H11,pentyl    C5H11,t-pentyl  C5H12,n-pentane
 C5H12,i-pentane CH3C(CH3)2CH3   C6H2            C6H5,phenyl     C6H5O,phenoxy  
 C6H6            C6H5OH,phenol   C6H10,cyclo-    C6H12,1-hexene  C6H12,cyclo-   
 C6H13,n-hexyl   C6H14,n-hexane  C7H7,benzyl     C7H8            C7H8O,cresol-mx
 C7H14,1-heptene C7H15,n-heptyl  C7H16,n-heptane C7H16,2-methylh C8H8,styrene   
 C8H10,ethylbenz C8H16,1-octene  C8H17,n-octyl   C8H18,n-octane  C8H18,isooctane
 C9H19,n-nonyl   C10H8,naphthale C10H21,n-decyl  C12H9,o-bipheny C12H10,biphenyl
 HCN             HCO             HCCN            HCCO            HNC            
 HNCO            HNO             HNO2            HNO3            HCHO,formaldehy
 HCOOH           H2O2            (HCOOH)2        *N              NCO            
 *NH             NH2             NH3             NH2OH           NO3            
 NCN             N2H2            NH2NO2          N2H4            N2O            
 N2O3            N2O4            N2O5            N3              N3H            
 O3              C(gr)           H2O(cr)         H2O(L)         

 NOTE. WEIGHT FRACTION OF FUEL IN TOTAL FUELS AND OF OXIDANT IN TOTAL OXIDANTS






 POINT ITN      T            C           H           N           O 

   1    2    2430.508     -22.495     -12.449     -12.240     -14.053

 Pinf/Pt = 1.776266
   2    4    2198.439     -24.360     -13.082     -12.349     -14.143

 Pinf/Pt = 1.786489
   2    2    2196.161     -24.380     -13.089     -12.350     -14.144

 Pinf/Pt = 1.786581
   2    1    2196.141     -24.380     -13.089     -12.350     -14.144






              THEORETICAL ROCKET PERFORMANCE ASSUMING EQUILIBRIUM

           COMPOSITION DURING EXPANSION FROM INFINITE AREA COMBUSTOR

 Pin =   536.6 PSIA
 CASE =                

             REACTANT                    WT FRACTION      ENERGY      TEMP
                                          (SEE NOTE)     KJ/KG-MOL      K  
 FUEL        C4H6,butadiene               1.0000000         0.000      0.000
 OXIDANT     N2O                          1.0000000         0.000      0.000

 O/F=   14.00000  %FUEL=  6.666667  R,EQ.RATIO= 0.639327  PHI,EQ.RATIO= 0.639327

                 CHAMBER   THROAT
 Pinf/P            1.0000   1.7866
 P, BAR            37.000   20.710
 T, K             2430.51  2196.14
 RHO, KG/CU M    5.4266 0 3.3665 0
 H, KJ/KG         0.00000  -376.19
 U, KJ/KG         -681.83  -991.37
 G, KJ/KG        -20615.0 -19003.3
 S, KJ/(KG)(K)     8.4818   8.4818

 M, (1/n)          29.639   29.682
 MW, MOL WT        29.639   29.682
 (dLV/dLP)t      -1.00097 -1.00037
 (dLV/dLT)p        1.0266   1.0113
 Cp, KJ/(KG)(K)    1.7095   1.5678
 GAMMAs            1.2077   1.2230
 SON VEL,M/SEC      907.4    867.4
 MACH NUMBER        0.000    1.000

 TRANSPORT PROPERTIES (GASES ONLY)
   CONDUCTIVITY IN UNITS OF MILLIWATTS/(CM)(K)

 VISC,MILLIPOISE  0.81257  0.75792

  WITH EQUILIBRIUM REACTIONS

 Cp, KJ/(KG)(K)    1.7095   1.5678
 CONDUCTIVITY      1.9865   1.6528
 PRANDTL NUMBER    0.6993   0.7189

  WITH FROZEN REACTIONS

 Cp, KJ/(KG)(K)    1.4261   1.4112
 CONDUCTIVITY      1.5876   1.4547
 PRANDTL NUMBER    0.7299   0.7353

 PERFORMANCE PARAMETERS

 Ae/At                      1.0000
 CSTAR, M/SEC               1267.1
 CF                         0.6846
 Ivac, M/SEC                1576.6
 Isp, M/SEC                  867.4


 MOLE FRACTIONS

 *CO              0.00183  0.00057
 *CO2             0.14429  0.14576
 *H               0.00005  0.00001
 HO2              0.00002  0.00001
 *H2              0.00023  0.00008
 H2O              0.10706  0.10852
 *NO              0.01283  0.00804
 NO2              0.00005  0.00003
 *N2              0.62207  0.62539
 *O               0.00055  0.00019
 *OH              0.00453  0.00228
 *O2              0.10649  0.10911

  * THERMODYNAMIC PROPERTIES FITTED TO 20000.K

    PRODUCTS WHICH WERE CONSIDERED BUT WHOSE MOLE FRACTIONS
    WERE LESS THAN 5.000000E-06 FOR ALL ASSIGNED CONDITIONS

 *C              *CH             CH2             CH3             CH2OH          
 CH3O            CH4             CH3OH           CH3OOH          *CN            
 CNN             COOH            *C2             C2H             C2H2,acetylene 
 C2H2,vinylidene CH2CO,ketene    O(CH)2O         HO(CO)2OH       C2H3,vinyl     
 CH3CN           CH3CO,acetyl    C2H4            C2H4O,ethylen-o CH3CHO,ethanal 
 CH3COOH         OHCH2COOH       C2H5            C2H6            CH3N2CH3       
 C2H5OH          CH3OCH3         CH3O2CH3        CCN             CNC            
 OCCN            C2N2            C2O             *C3             C3H3,1-propynl 
 C3H3,2-propynl  C3H4,allene     C3H4,propyne    C3H4,cyclo-     C3H5,allyl     
 C3H6,propylene  C3H6,cyclo-     C3H6O,propylox  C3H6O,acetone   C3H6O,propanal 
 C3H7,n-propyl   C3H7,i-propyl   C3H8            C3H8O,1propanol C3H8O,2propanol
 CNCOCN          C3O2            *C4             C4H2,butadiyne  C4H4,1,3-cyclo-
 C4H6,butadiene  C4H6,1butyne    C4H6,2butyne    C4H6,cyclo-     C4H8,1-butene  
 C4H8,cis2-buten C4H8,tr2-butene C4H8,isobutene  C4H8,cyclo-     (CH3COOH)2     
 C4H9,n-butyl    C4H9,i-butyl    C4H9,s-butyl    C4H9,t-butyl    C4H10,n-butane 
 C4H10,isobutane C4N2            *C5             C5H6,1,3cyclo-  C5H8,cyclo-    
 C5H10,1-pentene C5H10,cyclo-    C5H11,pentyl    C5H11,t-pentyl  C5H12,n-pentane
 C5H12,i-pentane CH3C(CH3)2CH3   C6H2            C6H5,phenyl     C6H5O,phenoxy  
 C6H6            C6H5OH,phenol   C6H10,cyclo-    C6H12,1-hexene  C6H12,cyclo-   
 C6H13,n-hexyl   C6H14,n-hexane  C7H7,benzyl     C7H8            C7H8O,cresol-mx
 C7H14,1-heptene C7H15,n-heptyl  C7H16,n-heptane C7H16,2-methylh C8H8,styrene   
 C8H10,ethylbenz C8H16,1-octene  C8H17,n-octyl   C8H18,n-octane  C8H18,isooctane
 C9H19,n-nonyl   C10H8,naphthale C10H21,n-decyl  C12H9,o-bipheny C12H10,biphenyl
 HCN             HCO             HCCN            HCCO            HNC            
 HNCO            HNO             HNO2            HNO3            HCHO,formaldehy
 HCOOH           H2O2            (HCOOH)2        *N              NCO            
 *NH             NH2             NH3             NH2OH           NO3            
 NCN             N2H2            NH2NO2          N2H4            N2O            
 N2O3            N2O4            N2O5            N3              N3H            
 O3              C(gr)           H2O(cr)         H2O(L)         

 NOTE. WEIGHT FRACTION OF FUEL IN TOTAL FUELS AND OF OXIDANT IN TOTAL OXIDANTS



