
 *******************************************************************************

         NASA-GLENN CHEMICAL EQUILIBRIUM PROGRAM CEA2, MAY 21, 2004
                   BY  BONNIE MCBRIDE AND SANFORD GORDON
      REFS: NASA RP-1311, PART I, 1994 AND NASA RP-1311, PART II, 1996

 *******************************************************************************



 problem o/f=4,5,6,7,8,8.5,9
     rocket equilibrium
   p,bar=30,31,32,33,34,35,36,37
 react
     fuel=C4H6,butadiene wt=100
     oxid=N2O wt=100
 output  transport
     plot o/f %f p t rho h g m mw cp gam pip mach aeat cf ivac isp
 end

 OPTIONS: TP=F  HP=F  SP=F  TV=F  UV=F  SV=F  DETN=F  SHOCK=F  REFL=F  INCD=F
 RKT=T  FROZ=F  EQL=T  IONS=F  SIUNIT=T  DEBUGF=F  SHKDBG=F  DETDBG=F  TRNSPT=T

 TRACE= 0.00E+00  S/R= 0.000000E+00  H/R= 0.000000E+00  U/R= 0.000000E+00

 Pc,BAR =    30.000000    31.000000    32.000000    33.000000    34.000000    35.000000    36.000000

 Pc,BAR =    37.000000

 Pc/P =

 SUBSONIC AREA RATIOS =

 SUPERSONIC AREA RATIOS =

 NFZ=  1  Mdot/Ac= 0.000000E+00  Ac/At= 0.000000E+00

    REACTANT          WT.FRAC   (ENERGY/R),K   TEMP,K  DENSITY
        EXPLODED FORMULA
 F: C4H6,butadiene   1.000000   0.000000E+00     0.00  0.0000
          C  4.00000  H  6.00000
 O: N2O              1.000000   0.000000E+00     0.00  0.0000
          N  2.00000  O  1.00000

  SPECIES BEING CONSIDERED IN THIS SYSTEM
 (CONDENSED PHASE MAY HAVE NAME LISTED SEVERAL TIMES)
  LAST thermo.inp UPDATE:    9/09/04

  g 7/97  *C               tpis79  *CH              g 4/02  CH2            
  g 4/02  CH3              g11/00  CH2OH            g 7/00  CH3O           
  g 8/99  CH4              g 7/00  CH3OH            srd 01  CH3OOH         
  g 8/99  *CN              g12/99  CNN              tpis79  *CO            
  g 9/99  *CO2             tpis91  COOH             tpis91  *C2            
  g 6/01  C2H              g 1/91  C2H2,acetylene   g 5/01  C2H2,vinylidene
  g 4/02  CH2CO,ketene     g 3/02  O(CH)2O          srd 01  HO(CO)2OH      
  g 7/01  C2H3,vinyl       g 9/00  CH3CN            g 6/96  CH3CO,acetyl   
  g 1/00  C2H4             g 8/88  C2H4O,ethylen-o  g 8/88  CH3CHO,ethanal 
  g 6/00  CH3COOH          srd 01  OHCH2COOH        g 7/00  C2H5           
  g 7/00  C2H6             g 8/88  CH3N2CH3         g 8/88  C2H5OH         
  g 7/00  CH3OCH3          srd 01  CH3O2CH3         g 7/00  CCN            
  tpis91  CNC              srd 01  OCCN             tpis79  C2N2           
  g 8/00  C2O              tpis79  *C3              n 4/98  C3H3,1-propynl 
  n 4/98  C3H3,2-propynl   g 2/00  C3H4,allene      g 1/00  C3H4,propyne   
  g 5/90  C3H4,cyclo-      g 3/01  C3H5,allyl       g 2/00  C3H6,propylene 
  g 1/00  C3H6,cyclo-      g 6/01  C3H6O,propylox   g 6/97  C3H6O,acetone  
  g 1/02  C3H6O,propanal   g 7/01  C3H7,n-propyl    g 9/85  C3H7,i-propyl  
  g 2/00  C3H8             g 2/00  C3H8O,1propanol  g 2/00  C3H8O,2propanol
  srd 01  CNCOCN           g 7/88  C3O2             g tpis  *C4            
  g 7/01  C4H2,butadiyne   g 8/00  C4H4,1,3-cyclo-  n10/92  C4H6,butadiene 
  n10/93  C4H6,1butyne     n10/93  C4H6,2butyne     g 8/00  C4H6,cyclo-    
  n 4/88  C4H8,1-butene    n 4/88  C4H8,cis2-buten  n 4/88  C4H8,tr2-butene
  n 4/88  C4H8,isobutene   g 8/00  C4H8,cyclo-      g10/00  (CH3COOH)2     
  n10/84  C4H9,n-butyl     n10/84  C4H9,i-butyl     g 1/93  C4H9,s-butyl   
  g 1/93  C4H9,t-butyl     g12/00  C4H10,n-butane   g 8/00  C4H10,isobutane
  g 6/01  C4N2             g 8/00  *C5              g 5/90  C5H6,1,3cyclo- 
  g 1/93  C5H8,cyclo-      n 4/87  C5H10,1-pentene  g 2/01  C5H10,cyclo-   
  n10/84  C5H11,pentyl     g 1/93  C5H11,t-pentyl   n10/85  C5H12,n-pentane
  n10/85  C5H12,i-pentane  n10/85  CH3C(CH3)2CH3    g 2/93  C6H2           
  g11/00  C6H5,phenyl      g 8/00  C6H5O,phenoxy    g 8/00  C6H6           
  g 8/00  C6H5OH,phenol    g 1/93  C6H10,cyclo-     n 4/87  C6H12,1-hexene 
  g 6/90  C6H12,cyclo-     n10/83  C6H13,n-hexyl    g 6/01  C6H14,n-hexane 
  g 7/01  C7H7,benzyl      g 1/93  C7H8             g12/00  C7H8O,cresol-mx
  n 4/87  C7H14,1-heptene  n10/83  C7H15,n-heptyl   n10/85  C7H16,n-heptane
  n10/85  C7H16,2-methylh  n 4/89  C8H8,styrene     n10/86  C8H10,ethylbenz
  n 4/87  C8H16,1-octene   n10/83  C8H17,n-octyl    n 4/85  C8H18,n-octane 
  n 4/85  C8H18,isooctane  n10/83  C9H19,n-nonyl    g 3/01  C10H8,naphthale
  n10/83  C10H21,n-decyl   g 8/00  C12H9,o-bipheny  g 8/00  C12H10,biphenyl
  g 6/97  *H               g 6/01  HCN              g 1/01  HCO            
  tpis89  HCCN             g 6/01  HCCO             g 6/01  HNC            
  g 7/00  HNCO             g10/01  HNO              tpis89  HNO2           
  g 5/99  HNO3             g 4/02  HO2              tpis78  *H2            
  g 5/01  HCHO,formaldehy  g 6/01  HCOOH            g 8/89  H2O            
  g 6/99  H2O2             g 6/01  (HCOOH)2         g 5/97  *N             
  g 6/01  NCO              g 4/99  *NH              g 3/01  NH2            
  tpis89  NH3              tpis89  NH2OH            tpis89  *NO            
  g 4/99  NO2              j12/64  NO3              tpis78  *N2            
  g 6/01  NCN              g 5/99  N2H2             tpis89  NH2NO2         
  g 4/99  N2H4             g 4/99  N2O              g 4/99  N2O3           
  tpis89  N2O4             g 4/99  N2O5             tpis89  N3             
  g 4/99  N3H              g 5/97  *O               g 4/02  *OH            
  tpis89  *O2              g 8/01  O3               n 4/83  C(gr)          
  n 4/83  C(gr)            n 4/83  C(gr)            g11/99  H2O(cr)        
  g 8/01  H2O(L)           g 8/01  H2O(L)         

 SPECIES WITH TRANSPORT PROPERTIES

        PURE SPECIES

  C                 CH4               CH3OH             CO              
  CO2               C2H2,acetylene  
  C2H4              C2H6              C2H5OH            C2N2            
  H                 HCN             
  H2                H2O               N                 NH3             
  NO                NO2             
  N2                N2O               N2O4              O               
  OH                O2              

     BINARY INTERACTIONS

     C               O               
     CH4             O2              
     CO              CO2             
     CO              N2              
     CO              O2              
     CO2             H2              
     CO2             H2O             
     CO2             N2              
     CO2             O2              
     H               H2              
     H               N               
     H               N2              
     H               O               
     H2              H2O             
     H2              N2              
     H2              O2              
     H2O             N2              
     H2O             O2              
     N               NO              
     N               N2              
     N               O               
     N               O2              
     NO              O               
     N2              O               
     N2              O2              
     O               O2              


 O/F =   4.000000

                       EFFECTIVE FUEL     EFFECTIVE OXIDANT        MIXTURE
 ENTHALPY                  h(2)/R              h(1)/R               h0/R
 (KG-MOL)(K)/KG        0.00000000E+00      0.00000000E+00      0.00000000E+00

 KG-FORM.WT./KG             bi(2)               bi(1)               b0i
  *C                   0.73950221E-01      0.00000000E+00      0.14790044E-01
  *H                   0.11092533E+00      0.00000000E+00      0.22185066E-01
  *N                   0.00000000E+00      0.45441326E-01      0.36353061E-01
  *O                   0.00000000E+00      0.22720663E-01      0.18176530E-01

 POINT ITN      T            C           H           N           O 

   1   19    1976.495      -8.211      -8.836     -12.193     -23.932

 Pinf/Pt = 1.823328
   2    3    1728.244      -7.301      -8.919     -12.272     -25.971

 Pinf/Pt = 1.826989
   2    2    1727.464      -7.298      -8.920     -12.272     -25.979






              THEORETICAL ROCKET PERFORMANCE ASSUMING EQUILIBRIUM

           COMPOSITION DURING EXPANSION FROM INFINITE AREA COMBUSTOR

 Pin =   435.1 PSIA
 CASE =                

             REACTANT                    WT FRACTION      ENERGY      TEMP
                                          (SEE NOTE)     KJ/KG-MOL      K  
 FUEL        C4H6,butadiene               1.0000000         0.000      0.000
 OXIDANT     N2O                          1.0000000         0.000      0.000

 O/F=    4.00000  %FUEL= 20.000000  R,EQ.RATIO= 2.237645  PHI,EQ.RATIO= 2.237645

                 CHAMBER   THROAT
 Pinf/P            1.0000   1.8270
 P, BAR            30.000   16.420
 T, K             1976.50  1727.46
 RHO, KG/CU M    4.1434 0 2.5949 0
 H, KJ/KG         0.00000  -408.31
 U, KJ/KG         -724.05 -1041.11
 G, KJ/KG        -19650.1 -17582.6
 S, KJ/(KG)(K)     9.9419   9.9419

 M, (1/n)          22.697   22.698
 (dLV/dLP)t      -1.00009 -1.00007
 (dLV/dLT)p        1.0010   1.0005
 Cp, KJ/(KG)(K)    1.6541   1.6282
 GAMMAs            1.2850   1.2905
 SON VEL,M/SEC      964.6    903.7
 MACH NUMBER        0.000    1.000

 TRANSPORT PROPERTIES (GASES ONLY)
   CONDUCTIVITY IN UNITS OF MILLIWATTS/(CM)(K)

 VISC,MILLIPOISE  0.65669  0.59948

  WITH EQUILIBRIUM REACTIONS

 Cp, KJ/(KG)(K)    1.6541   1.6282
 CONDUCTIVITY      1.8462   1.6330
 PRANDTL NUMBER    0.5884   0.5977

  WITH FROZEN REACTIONS

 Cp, KJ/(KG)(K)    1.6328   1.6048
 CONDUCTIVITY      1.7995   1.6083
 PRANDTL NUMBER    0.5958   0.5982

 PERFORMANCE PARAMETERS

 Ae/At                      1.0000
 CSTAR, M/SEC               1279.3
 CF                         0.7064
 Ivac, M/SEC                1603.9
 Isp, M/SEC                  903.7


 MOLE FRACTIONS

 CH4              0.00000  0.00001
 *CO              0.31533  0.31199
 *CO2             0.02033  0.02369
 *H               0.00011  0.00002
 HCN              0.00002  0.00001
 *H2              0.19509  0.19851
 H2O              0.05655  0.05319
 NH3              0.00003  0.00003
 *N2              0.41252  0.41255

  * THERMODYNAMIC PROPERTIES FITTED TO 20000.K

    PRODUCTS WHICH WERE CONSIDERED BUT WHOSE MOLE FRACTIONS
    WERE LESS THAN 5.000000E-06 FOR ALL ASSIGNED CONDITIONS

 *C              *CH             CH2             CH3             CH2OH          
 CH3O            CH3OH           CH3OOH          *CN             CNN            
 COOH            *C2             C2H             C2H2,acetylene  C2H2,vinylidene
 CH2CO,ketene    O(CH)2O         HO(CO)2OH       C2H3,vinyl      CH3CN          
 CH3CO,acetyl    C2H4            C2H4O,ethylen-o CH3CHO,ethanal  CH3COOH        
 OHCH2COOH       C2H5            C2H6            CH3N2CH3        C2H5OH         
 CH3OCH3         CH3O2CH3        CCN             CNC             OCCN           
 C2N2            C2O             *C3             C3H3,1-propynl  C3H3,2-propynl 
 C3H4,allene     C3H4,propyne    C3H4,cyclo-     C3H5,allyl      C3H6,propylene 
 C3H6,cyclo-     C3H6O,propylox  C3H6O,acetone   C3H6O,propanal  C3H7,n-propyl  
 C3H7,i-propyl   C3H8            C3H8O,1propanol C3H8O,2propanol CNCOCN         
 C3O2            *C4             C4H2,butadiyne  C4H4,1,3-cyclo- C4H6,butadiene 
 C4H6,1butyne    C4H6,2butyne    C4H6,cyclo-     C4H8,1-butene   C4H8,cis2-buten
 C4H8,tr2-butene C4H8,isobutene  C4H8,cyclo-     (CH3COOH)2      C4H9,n-butyl   
 C4H9,i-butyl    C4H9,s-butyl    C4H9,t-butyl    C4H10,n-butane  C4H10,isobutane
 C4N2            *C5             C5H6,1,3cyclo-  C5H8,cyclo-     C5H10,1-pentene
 C5H10,cyclo-    C5H11,pentyl    C5H11,t-pentyl  C5H12,n-pentane C5H12,i-pentane
 CH3C(CH3)2CH3   C6H2            C6H5,phenyl     C6H5O,phenoxy   C6H6           
 C6H5OH,phenol   C6H10,cyclo-    C6H12,1-hexene  C6H12,cyclo-    C6H13,n-hexyl  
 C6H14,n-hexane  C7H7,benzyl     C7H8            C7H8O,cresol-mx C7H14,1-heptene
 C7H15,n-heptyl  C7H16,n-heptane C7H16,2-methylh C8H8,styrene    C8H10,ethylbenz
 C8H16,1-octene  C8H17,n-octyl   C8H18,n-octane  C8H18,isooctane C9H19,n-nonyl  
 C10H8,naphthale C10H21,n-decyl  C12H9,o-bipheny C12H10,biphenyl HCO            
 HCCN            HCCO            HNC             HNCO            HNO            
 HNO2            HNO3            HO2             HCHO,formaldehy HCOOH          
 H2O2            (HCOOH)2        *N              NCO             *NH            
 NH2             NH2OH           *NO             NO2             NO3            
 NCN             N2H2            NH2NO2          N2H4            N2O            
 N2O3            N2O4            N2O5            N3              N3H            
 *O              *OH             *O2             O3              C(gr)          
 H2O(cr)         H2O(L)         

 NOTE. WEIGHT FRACTION OF FUEL IN TOTAL FUELS AND OF OXIDANT IN TOTAL OXIDANTS






 POINT ITN      T            C           H           N           O 

   1    1    1976.510      -8.178      -8.820     -12.177     -23.932

 Pinf/Pt = 1.823339
   2    3    1728.248      -7.269      -8.903     -12.256     -25.971

 Pinf/Pt = 1.826992
   2    2    1727.469      -7.265      -8.903     -12.256     -25.979






              THEORETICAL ROCKET PERFORMANCE ASSUMING EQUILIBRIUM

           COMPOSITION DURING EXPANSION FROM INFINITE AREA COMBUSTOR

 Pin =   449.6 PSIA
 CASE =                

             REACTANT                    WT FRACTION      ENERGY      TEMP
                                          (SEE NOTE)     KJ/KG-MOL      K  
 FUEL        C4H6,butadiene               1.0000000         0.000      0.000
 OXIDANT     N2O                          1.0000000         0.000      0.000

 O/F=    4.00000  %FUEL= 20.000000  R,EQ.RATIO= 2.237645  PHI,EQ.RATIO= 2.237645

                 CHAMBER   THROAT
 Pinf/P            1.0000   1.8270
 P, BAR            31.000   16.968
 T, K             1976.51  1727.47
 RHO, KG/CU M    4.2815 0 2.6814 0
 H, KJ/KG         0.00032  -408.31
 U, KJ/KG         -724.05 -1041.11
 G, KJ/KG        -19626.5 -17561.9
 S, KJ/(KG)(K)     9.9299   9.9299

 M, (1/n)          22.697   22.698
 (dLV/dLP)t      -1.00010 -1.00007
 (dLV/dLT)p        1.0010   1.0005
 Cp, KJ/(KG)(K)    1.6540   1.6282
 GAMMAs            1.2850   1.2905
 SON VEL,M/SEC      964.6    903.7
 MACH NUMBER        0.000    1.000

 TRANSPORT PROPERTIES (GASES ONLY)
   CONDUCTIVITY IN UNITS OF MILLIWATTS/(CM)(K)

 VISC,MILLIPOISE  0.65669  0.59948

  WITH EQUILIBRIUM REACTIONS

 Cp, KJ/(KG)(K)    1.6540   1.6282
 CONDUCTIVITY      1.8457   1.6329
 PRANDTL NUMBER    0.5885   0.5978

  WITH FROZEN REACTIONS

 Cp, KJ/(KG)(K)    1.6328   1.6048
 CONDUCTIVITY      1.7996   1.6083
 PRANDTL NUMBER    0.5958   0.5982

 PERFORMANCE PARAMETERS

 Ae/At                     1.00000
 CSTAR, M/SEC               1279.3
 CF                         0.7064
 Ivac, M/SEC                1603.9
 Isp, M/SEC                  903.7


 MOLE FRACTIONS

 CH4              0.00000  0.00001
 *CO              0.31533  0.31199
 *CO2             0.02033  0.02369
 *H               0.00011  0.00002
 HCN              0.00002  0.00001
 *H2              0.19509  0.19851
 H2O              0.05655  0.05319
 NH3              0.00004  0.00003
 *N2              0.41252  0.41255

  * THERMODYNAMIC PROPERTIES FITTED TO 20000.K

    PRODUCTS WHICH WERE CONSIDERED BUT WHOSE MOLE FRACTIONS
    WERE LESS THAN 5.000000E-06 FOR ALL ASSIGNED CONDITIONS

 *C              *CH             CH2             CH3             CH2OH          
 CH3O            CH3OH           CH3OOH          *CN             CNN            
 COOH            *C2             C2H             C2H2,acetylene  C2H2,vinylidene
 CH2CO,ketene    O(CH)2O         HO(CO)2OH       C2H3,vinyl      CH3CN          
 CH3CO,acetyl    C2H4            C2H4O,ethylen-o CH3CHO,ethanal  CH3COOH        
 OHCH2COOH       C2H5            C2H6            CH3N2CH3        C2H5OH         
 CH3OCH3         CH3O2CH3        CCN             CNC             OCCN           
 C2N2            C2O             *C3             C3H3,1-propynl  C3H3,2-propynl 
 C3H4,allene     C3H4,propyne    C3H4,cyclo-     C3H5,allyl      C3H6,propylene 
 C3H6,cyclo-     C3H6O,propylox  C3H6O,acetone   C3H6O,propanal  C3H7,n-propyl  
 C3H7,i-propyl   C3H8            C3H8O,1propanol C3H8O,2propanol CNCOCN         
 C3O2            *C4             C4H2,butadiyne  C4H4,1,3-cyclo- C4H6,butadiene 
 C4H6,1butyne    C4H6,2butyne    C4H6,cyclo-     C4H8,1-butene   C4H8,cis2-buten
 C4H8,tr2-butene C4H8,isobutene  C4H8,cyclo-     (CH3COOH)2      C4H9,n-butyl   
 C4H9,i-butyl    C4H9,s-butyl    C4H9,t-butyl    C4H10,n-butane  C4H10,isobutane
 C4N2            *C5             C5H6,1,3cyclo-  C5H8,cyclo-     C5H10,1-pentene
 C5H10,cyclo-    C5H11,pentyl    C5H11,t-pentyl  C5H12,n-pentane C5H12,i-pentane
 CH3C(CH3)2CH3   C6H2            C6H5,phenyl     C6H5O,phenoxy   C6H6           
 C6H5OH,phenol   C6H10,cyclo-    C6H12,1-hexene  C6H12,cyclo-    C6H13,n-hexyl  
 C6H14,n-hexane  C7H7,benzyl     C7H8            C7H8O,cresol-mx C7H14,1-heptene
 C7H15,n-heptyl  C7H16,n-heptane C7H16,2-methylh C8H8,styrene    C8H10,ethylbenz
 C8H16,1-octene  C8H17,n-octyl   C8H18,n-octane  C8H18,isooctane C9H19,n-nonyl  
 C10H8,naphthale C10H21,n-decyl  C12H9,o-bipheny C12H10,biphenyl HCO            
 HCCN            HCCO            HNC             HNCO            HNO            
 HNO2            HNO3            HO2             HCHO,formaldehy HCOOH          
 H2O2            (HCOOH)2        *N              NCO             *NH            
 NH2             NH2OH           *NO             NO2             NO3            
 NCN             N2H2            NH2NO2          N2H4            N2O            
 N2O3            N2O4            N2O5            N3              N3H            
 *O              *OH             *O2             O3              C(gr)          
 H2O(cr)         H2O(L)         

 NOTE. WEIGHT FRACTION OF FUEL IN TOTAL FUELS AND OF OXIDANT IN TOTAL OXIDANTS






 POINT ITN      T            C           H           N           O 

   1    1    1976.523      -8.147      -8.804     -12.161     -23.932

 Pinf/Pt = 1.823349
   2    3    1728.251      -7.237      -8.887     -12.240     -25.971

 Pinf/Pt = 1.826992
   2    2    1727.475      -7.234      -8.887     -12.240     -25.979






              THEORETICAL ROCKET PERFORMANCE ASSUMING EQUILIBRIUM

           COMPOSITION DURING EXPANSION FROM INFINITE AREA COMBUSTOR

 Pin =   464.1 PSIA
 CASE =                

             REACTANT                    WT FRACTION      ENERGY      TEMP
                                          (SEE NOTE)     KJ/KG-MOL      K  
 FUEL        C4H6,butadiene               1.0000000         0.000      0.000
 OXIDANT     N2O                          1.0000000         0.000      0.000

 O/F=    4.00000  %FUEL= 20.000000  R,EQ.RATIO= 2.237645  PHI,EQ.RATIO= 2.237645

                 CHAMBER   THROAT
 Pinf/P            1.0000   1.8270
 P, BAR            32.000   17.515
 T, K             1976.52  1727.47
 RHO, KG/CU M    4.4196 0 2.7679 0
 H, KJ/KG         0.00030  -408.32
 U, KJ/KG         -724.05 -1041.11
 G, KJ/KG        -19603.7 -17541.9
 S, KJ/(KG)(K)     9.9183   9.9183

 M, (1/n)          22.697   22.698
 (dLV/dLP)t      -1.00010 -1.00008
 (dLV/dLT)p        1.0010   1.0005
 Cp, KJ/(KG)(K)    1.6539   1.6283
 GAMMAs            1.2851   1.2905
 SON VEL,M/SEC      964.6    903.7
 MACH NUMBER        0.000    1.000

 TRANSPORT PROPERTIES (GASES ONLY)
   CONDUCTIVITY IN UNITS OF MILLIWATTS/(CM)(K)

 VISC,MILLIPOISE  0.65670  0.59948

  WITH EQUILIBRIUM REACTIONS

 Cp, KJ/(KG)(K)    1.6539   1.6283
 CONDUCTIVITY      1.8452   1.6328
 PRANDTL NUMBER    0.5886   0.5978

  WITH FROZEN REACTIONS

 Cp, KJ/(KG)(K)    1.6328   1.6048
 CONDUCTIVITY      1.7996   1.6083
 PRANDTL NUMBER    0.5958   0.5982

 PERFORMANCE PARAMETERS

 Ae/At                      1.0000
 CSTAR, M/SEC               1279.3
 CF                         0.7064
 Ivac, M/SEC                1603.9
 Isp, M/SEC                  903.7


 MOLE FRACTIONS

 CH4              0.00000  0.00001
 *CO              0.31533  0.31199
 *CO2             0.02034  0.02369
 *H               0.00011  0.00002
 HCN              0.00002  0.00001
 *H2              0.19509  0.19851
 H2O              0.05655  0.05319
 NH3              0.00004  0.00003
 *N2              0.41252  0.41255

  * THERMODYNAMIC PROPERTIES FITTED TO 20000.K

    PRODUCTS WHICH WERE CONSIDERED BUT WHOSE MOLE FRACTIONS
    WERE LESS THAN 5.000000E-06 FOR ALL ASSIGNED CONDITIONS

 *C              *CH             CH2             CH3             CH2OH          
 CH3O            CH3OH           CH3OOH          *CN             CNN            
 COOH            *C2             C2H             C2H2,acetylene  C2H2,vinylidene
 CH2CO,ketene    O(CH)2O         HO(CO)2OH       C2H3,vinyl      CH3CN          
 CH3CO,acetyl    C2H4            C2H4O,ethylen-o CH3CHO,ethanal  CH3COOH        
 OHCH2COOH       C2H5            C2H6            CH3N2CH3        C2H5OH         
 CH3OCH3         CH3O2CH3        CCN             CNC             OCCN           
 C2N2            C2O             *C3             C3H3,1-propynl  C3H3,2-propynl 
 C3H4,allene     C3H4,propyne    C3H4,cyclo-     C3H5,allyl      C3H6,propylene 
 C3H6,cyclo-     C3H6O,propylox  C3H6O,acetone   C3H6O,propanal  C3H7,n-propyl  
 C3H7,i-propyl   C3H8            C3H8O,1propanol C3H8O,2propanol CNCOCN         
 C3O2            *C4             C4H2,butadiyne  C4H4,1,3-cyclo- C4H6,butadiene 
 C4H6,1butyne    C4H6,2butyne    C4H6,cyclo-     C4H8,1-butene   C4H8,cis2-buten
 C4H8,tr2-butene C4H8,isobutene  C4H8,cyclo-     (CH3COOH)2      C4H9,n-butyl   
 C4H9,i-butyl    C4H9,s-butyl    C4H9,t-butyl    C4H10,n-butane  C4H10,isobutane
 C4N2            *C5             C5H6,1,3cyclo-  C5H8,cyclo-     C5H10,1-pentene
 C5H10,cyclo-    C5H11,pentyl    C5H11,t-pentyl  C5H12,n-pentane C5H12,i-pentane
 CH3C(CH3)2CH3   C6H2            C6H5,phenyl     C6H5O,phenoxy   C6H6           
 C6H5OH,phenol   C6H10,cyclo-    C6H12,1-hexene  C6H12,cyclo-    C6H13,n-hexyl  
 C6H14,n-hexane  C7H7,benzyl     C7H8            C7H8O,cresol-mx C7H14,1-heptene
 C7H15,n-heptyl  C7H16,n-heptane C7H16,2-methylh C8H8,styrene    C8H10,ethylbenz
 C8H16,1-octene  C8H17,n-octyl   C8H18,n-octane  C8H18,isooctane C9H19,n-nonyl  
 C10H8,naphthale C10H21,n-decyl  C12H9,o-bipheny C12H10,biphenyl HCO            
 HCCN            HCCO            HNC             HNCO            HNO            
 HNO2            HNO3            HO2             HCHO,formaldehy HCOOH          
 H2O2            (HCOOH)2        *N              NCO             *NH            
 NH2             NH2OH           *NO             NO2             NO3            
 NCN             N2H2            NH2NO2          N2H4            N2O            
 N2O3            N2O4            N2O5            N3              N3H            
 *O              *OH             *O2             O3              C(gr)          
 H2O(cr)         H2O(L)         

 NOTE. WEIGHT FRACTION OF FUEL IN TOTAL FUELS AND OF OXIDANT IN TOTAL OXIDANTS






 POINT ITN      T            C           H           N           O 

   1    1    1976.537      -8.116      -8.789     -12.145     -23.932

 Pinf/Pt = 1.823359
   2    3    1728.255      -7.206      -8.872     -12.224     -25.971

 Pinf/Pt = 1.826992
   2    2    1727.481      -7.203      -8.872     -12.225     -25.979






              THEORETICAL ROCKET PERFORMANCE ASSUMING EQUILIBRIUM

           COMPOSITION DURING EXPANSION FROM INFINITE AREA COMBUSTOR

 Pin =   478.6 PSIA
 CASE =                

             REACTANT                    WT FRACTION      ENERGY      TEMP
                                          (SEE NOTE)     KJ/KG-MOL      K  
 FUEL        C4H6,butadiene               1.0000000         0.000      0.000
 OXIDANT     N2O                          1.0000000         0.000      0.000

 O/F=    4.00000  %FUEL= 20.000000  R,EQ.RATIO= 2.237645  PHI,EQ.RATIO= 2.237645

                 CHAMBER   THROAT
 Pinf/P            1.0000   1.8270
 P, BAR            33.000   18.062
 T, K             1976.54  1727.48
 RHO, KG/CU M    4.5577 0 2.8544 0
 H, KJ/KG         0.00029  -408.32
 U, KJ/KG         -724.05 -1041.11
 G, KJ/KG        -19581.5 -17522.5
 S, KJ/(KG)(K)     9.9070   9.9070

 M, (1/n)          22.697   22.698
 (dLV/dLP)t      -1.00010 -1.00008
 (dLV/dLT)p        1.0010   1.0005
 Cp, KJ/(KG)(K)    1.6538   1.6283
 GAMMAs            1.2851   1.2905
 SON VEL,M/SEC      964.6    903.7
 MACH NUMBER        0.000    1.000

 TRANSPORT PROPERTIES (GASES ONLY)
   CONDUCTIVITY IN UNITS OF MILLIWATTS/(CM)(K)

 VISC,MILLIPOISE  0.65670  0.59948

  WITH EQUILIBRIUM REACTIONS

 Cp, KJ/(KG)(K)    1.6538   1.6283
 CONDUCTIVITY      1.8447   1.6328
 PRANDTL NUMBER    0.5888   0.5978

  WITH FROZEN REACTIONS

 Cp, KJ/(KG)(K)    1.6328   1.6048
 CONDUCTIVITY      1.7996   1.6083
 PRANDTL NUMBER    0.5958   0.5982

 PERFORMANCE PARAMETERS

 Ae/At                      1.0000
 CSTAR, M/SEC               1279.3
 CF                         0.7064
 Ivac, M/SEC                1603.9
 Isp, M/SEC                  903.7


 MOLE FRACTIONS

 CH4              0.00000  0.00001
 *CO              0.31533  0.31199
 *CO2             0.02034  0.02369
 *H               0.00011  0.00002
 HCN              0.00002  0.00001
 *H2              0.19509  0.19850
 H2O              0.05655  0.05319
 NH3              0.00004  0.00004
 *N2              0.41252  0.41255

  * THERMODYNAMIC PROPERTIES FITTED TO 20000.K

    PRODUCTS WHICH WERE CONSIDERED BUT WHOSE MOLE FRACTIONS
    WERE LESS THAN 5.000000E-06 FOR ALL ASSIGNED CONDITIONS

 *C              *CH             CH2             CH3             CH2OH          
 CH3O            CH3OH           CH3OOH          *CN             CNN            
 COOH            *C2             C2H             C2H2,acetylene  C2H2,vinylidene
 CH2CO,ketene    O(CH)2O         HO(CO)2OH       C2H3,vinyl      CH3CN          
 CH3CO,acetyl    C2H4            C2H4O,ethylen-o CH3CHO,ethanal  CH3COOH        
 OHCH2COOH       C2H5            C2H6            CH3N2CH3        C2H5OH         
 CH3OCH3         CH3O2CH3        CCN             CNC             OCCN           
 C2N2            C2O             *C3             C3H3,1-propynl  C3H3,2-propynl 
 C3H4,allene     C3H4,propyne    C3H4,cyclo-     C3H5,allyl      C3H6,propylene 
 C3H6,cyclo-     C3H6O,propylox  C3H6O,acetone   C3H6O,propanal  C3H7,n-propyl  
 C3H7,i-propyl   C3H8            C3H8O,1propanol C3H8O,2propanol CNCOCN         
 C3O2            *C4             C4H2,butadiyne  C4H4,1,3-cyclo- C4H6,butadiene 
 C4H6,1butyne    C4H6,2butyne    C4H6,cyclo-     C4H8,1-butene   C4H8,cis2-buten
 C4H8,tr2-butene C4H8,isobutene  C4H8,cyclo-     (CH3COOH)2      C4H9,n-butyl   
 C4H9,i-butyl    C4H9,s-butyl    C4H9,t-butyl    C4H10,n-butane  C4H10,isobutane
 C4N2            *C5             C5H6,1,3cyclo-  C5H8,cyclo-     C5H10,1-pentene
 C5H10,cyclo-    C5H11,pentyl    C5H11,t-pentyl  C5H12,n-pentane C5H12,i-pentane
 CH3C(CH3)2CH3   C6H2            C6H5,phenyl     C6H5O,phenoxy   C6H6           
 C6H5OH,phenol   C6H10,cyclo-    C6H12,1-hexene  C6H12,cyclo-    C6H13,n-hexyl  
 C6H14,n-hexane  C7H7,benzyl     C7H8            C7H8O,cresol-mx C7H14,1-heptene
 C7H15,n-heptyl  C7H16,n-heptane C7H16,2-methylh C8H8,styrene    C8H10,ethylbenz
 C8H16,1-octene  C8H17,n-octyl   C8H18,n-octane  C8H18,isooctane C9H19,n-nonyl  
 C10H8,naphthale C10H21,n-decyl  C12H9,o-bipheny C12H10,biphenyl HCO            
 HCCN            HCCO            HNC             HNCO            HNO            
 HNO2            HNO3            HO2             HCHO,formaldehy HCOOH          
 H2O2            (HCOOH)2        *N              NCO             *NH            
 NH2             NH2OH           *NO             NO2             NO3            
 NCN             N2H2            NH2NO2          N2H4            N2O            
 N2O3            N2O4            N2O5            N3              N3H            
 *O              *OH             *O2             O3              C(gr)          
 H2O(cr)         H2O(L)         

 NOTE. WEIGHT FRACTION OF FUEL IN TOTAL FUELS AND OF OXIDANT IN TOTAL OXIDANTS






 POINT ITN      T            C           H           N           O 

   1    1    1976.550      -8.086      -8.774     -12.130     -23.932

 Pinf/Pt = 1.823368
   2    3    1728.258      -7.176      -8.857     -12.209     -25.971

 Pinf/Pt = 1.826992
   2    2    1727.486      -7.173      -8.857     -12.210     -25.978






              THEORETICAL ROCKET PERFORMANCE ASSUMING EQUILIBRIUM

           COMPOSITION DURING EXPANSION FROM INFINITE AREA COMBUSTOR

 Pin =   493.1 PSIA
 CASE =                

             REACTANT                    WT FRACTION      ENERGY      TEMP
                                          (SEE NOTE)     KJ/KG-MOL      K  
 FUEL        C4H6,butadiene               1.0000000         0.000      0.000
 OXIDANT     N2O                          1.0000000         0.000      0.000

 O/F=    4.00000  %FUEL= 20.000000  R,EQ.RATIO= 2.237645  PHI,EQ.RATIO= 2.237645

                 CHAMBER   THROAT
 Pinf/P            1.0000   1.8270
 P, BAR            34.000   18.610
 T, K             1976.55  1727.49
 RHO, KG/CU M    4.6958 0 2.9409 0
 H, KJ/KG         0.00027  -408.32
 U, KJ/KG         -724.06 -1041.11
 G, KJ/KG        -19560.0 -17503.6
 S, KJ/(KG)(K)     9.8961   9.8961

 M, (1/n)          22.697   22.698
 (dLV/dLP)t      -1.00010 -1.00008
 (dLV/dLT)p        1.0010   1.0005
 Cp, KJ/(KG)(K)    1.6537   1.6283
 GAMMAs            1.2851   1.2905
 SON VEL,M/SEC      964.6    903.7
 MACH NUMBER        0.000    1.000

 TRANSPORT PROPERTIES (GASES ONLY)
   CONDUCTIVITY IN UNITS OF MILLIWATTS/(CM)(K)

 VISC,MILLIPOISE  0.65670  0.59949

  WITH EQUILIBRIUM REACTIONS

 Cp, KJ/(KG)(K)    1.6537   1.6283
 CONDUCTIVITY      1.8442   1.6327
 PRANDTL NUMBER    0.5889   0.5979

  WITH FROZEN REACTIONS

 Cp, KJ/(KG)(K)    1.6328   1.6048
 CONDUCTIVITY      1.7996   1.6083
 PRANDTL NUMBER    0.5958   0.5982

 PERFORMANCE PARAMETERS

 Ae/At                      1.0000
 CSTAR, M/SEC               1279.3
 CF                         0.7064
 Ivac, M/SEC                1603.9
 Isp, M/SEC                  903.7


 MOLE FRACTIONS

 CH4              0.00000  0.00001
 *CO              0.31533  0.31199
 *CO2             0.02034  0.02369
 *H               0.00010  0.00002
 HCN              0.00002  0.00001
 *H2              0.19509  0.19850
 H2O              0.05655  0.05319
 NH3              0.00004  0.00004
 *N2              0.41252  0.41255

  * THERMODYNAMIC PROPERTIES FITTED TO 20000.K

    PRODUCTS WHICH WERE CONSIDERED BUT WHOSE MOLE FRACTIONS
    WERE LESS THAN 5.000000E-06 FOR ALL ASSIGNED CONDITIONS

 *C              *CH             CH2             CH3             CH2OH          
 CH3O            CH3OH           CH3OOH          *CN             CNN            
 COOH            *C2             C2H             C2H2,acetylene  C2H2,vinylidene
 CH2CO,ketene    O(CH)2O         HO(CO)2OH       C2H3,vinyl      CH3CN          
 CH3CO,acetyl    C2H4            C2H4O,ethylen-o CH3CHO,ethanal  CH3COOH        
 OHCH2COOH       C2H5            C2H6            CH3N2CH3        C2H5OH         
 CH3OCH3         CH3O2CH3        CCN             CNC             OCCN           
 C2N2            C2O             *C3             C3H3,1-propynl  C3H3,2-propynl 
 C3H4,allene     C3H4,propyne    C3H4,cyclo-     C3H5,allyl      C3H6,propylene 
 C3H6,cyclo-     C3H6O,propylox  C3H6O,acetone   C3H6O,propanal  C3H7,n-propyl  
 C3H7,i-propyl   C3H8            C3H8O,1propanol C3H8O,2propanol CNCOCN         
 C3O2            *C4             C4H2,butadiyne  C4H4,1,3-cyclo- C4H6,butadiene 
 C4H6,1butyne    C4H6,2butyne    C4H6,cyclo-     C4H8,1-butene   C4H8,cis2-buten
 C4H8,tr2-butene C4H8,isobutene  C4H8,cyclo-     (CH3COOH)2      C4H9,n-butyl   
 C4H9,i-butyl    C4H9,s-butyl    C4H9,t-butyl    C4H10,n-butane  C4H10,isobutane
 C4N2            *C5             C5H6,1,3cyclo-  C5H8,cyclo-     C5H10,1-pentene
 C5H10,cyclo-    C5H11,pentyl    C5H11,t-pentyl  C5H12,n-pentane C5H12,i-pentane
 CH3C(CH3)2CH3   C6H2            C6H5,phenyl     C6H5O,phenoxy   C6H6           
 C6H5OH,phenol   C6H10,cyclo-    C6H12,1-hexene  C6H12,cyclo-    C6H13,n-hexyl  
 C6H14,n-hexane  C7H7,benzyl     C7H8            C7H8O,cresol-mx C7H14,1-heptene
 C7H15,n-heptyl  C7H16,n-heptane C7H16,2-methylh C8H8,styrene    C8H10,ethylbenz
 C8H16,1-octene  C8H17,n-octyl   C8H18,n-octane  C8H18,isooctane C9H19,n-nonyl  
 C10H8,naphthale C10H21,n-decyl  C12H9,o-bipheny C12H10,biphenyl HCO            
 HCCN            HCCO            HNC             HNCO            HNO            
 HNO2            HNO3            HO2             HCHO,formaldehy HCOOH          
 H2O2            (HCOOH)2        *N              NCO             *NH            
 NH2             NH2OH           *NO             NO2             NO3            
 NCN             N2H2            NH2NO2          N2H4            N2O            
 N2O3            N2O4            N2O5            N3              N3H            
 *O              *OH             *O2             O3              C(gr)          
 H2O(cr)         H2O(L)         

 NOTE. WEIGHT FRACTION OF FUEL IN TOTAL FUELS AND OF OXIDANT IN TOTAL OXIDANTS






 POINT ITN      T            C           H           N           O 

   1    1    1976.562      -8.057      -8.759     -12.116     -23.931

 Pinf/Pt = 1.823377
   2    3    1728.262      -7.148      -8.842     -12.195     -25.971

 Pinf/Pt = 1.826991
   2    2    1727.492      -7.144      -8.843     -12.195     -25.978






              THEORETICAL ROCKET PERFORMANCE ASSUMING EQUILIBRIUM

           COMPOSITION DURING EXPANSION FROM INFINITE AREA COMBUSTOR

 Pin =   507.6 PSIA
 CASE =                

             REACTANT                    WT FRACTION      ENERGY      TEMP
                                          (SEE NOTE)     KJ/KG-MOL      K  
 FUEL        C4H6,butadiene               1.0000000         0.000      0.000
 OXIDANT     N2O                          1.0000000         0.000      0.000

 O/F=    4.00000  %FUEL= 20.000000  R,EQ.RATIO= 2.237645  PHI,EQ.RATIO= 2.237645

                 CHAMBER   THROAT
 Pinf/P            1.0000   1.8270
 P, BAR            35.000   19.157
 T, K             1976.56  1727.49
 RHO, KG/CU M    4.8339 0 3.0274 0
 H, KJ/KG         0.00026  -408.32
 U, KJ/KG         -724.06 -1041.11
 G, KJ/KG        -19539.2 -17485.3
 S, KJ/(KG)(K)     9.8854   9.8854

 M, (1/n)          22.697   22.698
 (dLV/dLP)t      -1.00010 -1.00009
 (dLV/dLT)p        1.0010   1.0006
 Cp, KJ/(KG)(K)    1.6536   1.6283
 GAMMAs            1.2851   1.2905
 SON VEL,M/SEC      964.6    903.7
 MACH NUMBER        0.000    1.000

 TRANSPORT PROPERTIES (GASES ONLY)
   CONDUCTIVITY IN UNITS OF MILLIWATTS/(CM)(K)

 VISC,MILLIPOISE  0.65670  0.59949

  WITH EQUILIBRIUM REACTIONS

 Cp, KJ/(KG)(K)    1.6536   1.6283
 CONDUCTIVITY      1.8437   1.6326
 PRANDTL NUMBER    0.5890   0.5979

  WITH FROZEN REACTIONS

 Cp, KJ/(KG)(K)    1.6328   1.6048
 CONDUCTIVITY      1.7996   1.6083
 PRANDTL NUMBER    0.5958   0.5982

 PERFORMANCE PARAMETERS

 Ae/At                      1.0000
 CSTAR, M/SEC               1279.3
 CF                         0.7064
 Ivac, M/SEC                1603.9
 Isp, M/SEC                  903.7


 MOLE FRACTIONS

 CH4              0.00000  0.00001
 *CO              0.31533  0.31199
 *CO2             0.02034  0.02369
 *H               0.00010  0.00002
 HCN              0.00002  0.00001
 *H2              0.19509  0.19850
 H2O              0.05655  0.05319
 NH3              0.00004  0.00004
 *N2              0.41252  0.41255

  * THERMODYNAMIC PROPERTIES FITTED TO 20000.K

    PRODUCTS WHICH WERE CONSIDERED BUT WHOSE MOLE FRACTIONS
    WERE LESS THAN 5.000000E-06 FOR ALL ASSIGNED CONDITIONS

 *C              *CH             CH2             CH3             CH2OH          
 CH3O            CH3OH           CH3OOH          *CN             CNN            
 COOH            *C2             C2H             C2H2,acetylene  C2H2,vinylidene
 CH2CO,ketene    O(CH)2O         HO(CO)2OH       C2H3,vinyl      CH3CN          
 CH3CO,acetyl    C2H4            C2H4O,ethylen-o CH3CHO,ethanal  CH3COOH        
 OHCH2COOH       C2H5            C2H6            CH3N2CH3        C2H5OH         
 CH3OCH3         CH3O2CH3        CCN             CNC             OCCN           
 C2N2            C2O             *C3             C3H3,1-propynl  C3H3,2-propynl 
 C3H4,allene     C3H4,propyne    C3H4,cyclo-     C3H5,allyl      C3H6,propylene 
 C3H6,cyclo-     C3H6O,propylox  C3H6O,acetone   C3H6O,propanal  C3H7,n-propyl  
 C3H7,i-propyl   C3H8            C3H8O,1propanol C3H8O,2propanol CNCOCN         
 C3O2            *C4             C4H2,butadiyne  C4H4,1,3-cyclo- C4H6,butadiene 
 C4H6,1butyne    C4H6,2butyne    C4H6,cyclo-     C4H8,1-butene   C4H8,cis2-buten
 C4H8,tr2-butene C4H8,isobutene  C4H8,cyclo-     (CH3COOH)2      C4H9,n-butyl   
 C4H9,i-butyl    C4H9,s-butyl    C4H9,t-butyl    C4H10,n-butane  C4H10,isobutane
 C4N2            *C5             C5H6,1,3cyclo-  C5H8,cyclo-     C5H10,1-pentene
 C5H10,cyclo-    C5H11,pentyl    C5H11,t-pentyl  C5H12,n-pentane C5H12,i-pentane
 CH3C(CH3)2CH3   C6H2            C6H5,phenyl     C6H5O,phenoxy   C6H6           
 C6H5OH,phenol   C6H10,cyclo-    C6H12,1-hexene  C6H12,cyclo-    C6H13,n-hexyl  
 C6H14,n-hexane  C7H7,benzyl     C7H8            C7H8O,cresol-mx C7H14,1-heptene
 C7H15,n-heptyl  C7H16,n-heptane C7H16,2-methylh C8H8,styrene    C8H10,ethylbenz
 C8H16,1-octene  C8H17,n-octyl   C8H18,n-octane  C8H18,isooctane C9H19,n-nonyl  
 C10H8,naphthale C10H21,n-decyl  C12H9,o-bipheny C12H10,biphenyl HCO            
 HCCN            HCCO            HNC             HNCO            HNO            
 HNO2            HNO3            HO2             HCHO,formaldehy HCOOH          
 H2O2            (HCOOH)2        *N              NCO             *NH            
 NH2             NH2OH           *NO             NO2             NO3            
 NCN             N2H2            NH2NO2          N2H4            N2O            
 N2O3            N2O4            N2O5            N3              N3H            
 *O              *OH             *O2             O3              C(gr)          
 H2O(cr)         H2O(L)         

 NOTE. WEIGHT FRACTION OF FUEL IN TOTAL FUELS AND OF OXIDANT IN TOTAL OXIDANTS






 POINT ITN      T            C           H           N           O 

   1    1    1976.574      -8.029      -8.745     -12.102     -23.931

 Pinf/Pt = 1.823385
   2    3    1728.266      -7.119      -8.828     -12.181     -25.971

 Pinf/Pt = 1.826991
   2    2    1727.498      -7.116      -8.829     -12.181     -25.978






              THEORETICAL ROCKET PERFORMANCE ASSUMING EQUILIBRIUM

           COMPOSITION DURING EXPANSION FROM INFINITE AREA COMBUSTOR

 Pin =   522.1 PSIA
 CASE =                

             REACTANT                    WT FRACTION      ENERGY      TEMP
                                          (SEE NOTE)     KJ/KG-MOL      K  
 FUEL        C4H6,butadiene               1.0000000         0.000      0.000
 OXIDANT     N2O                          1.0000000         0.000      0.000

 O/F=    4.00000  %FUEL= 20.000000  R,EQ.RATIO= 2.237645  PHI,EQ.RATIO= 2.237645

                 CHAMBER   THROAT
 Pinf/P            1.0000   1.8270
 P, BAR            36.000   19.705
 T, K             1976.57  1727.50
 RHO, KG/CU M    4.9719 0 3.1139 0
 H, KJ/KG         0.00025  -408.32
 U, KJ/KG         -724.06 -1041.11
 G, KJ/KG        -19518.9 -17467.6
 S, KJ/(KG)(K)     9.8751   9.8751

 M, (1/n)          22.697   22.698
 (dLV/dLP)t      -1.00011 -1.00009
 (dLV/dLT)p        1.0010   1.0006
 Cp, KJ/(KG)(K)    1.6535   1.6283
 GAMMAs            1.2851   1.2905
 SON VEL,M/SEC      964.6    903.7
 MACH NUMBER        0.000    1.000

 TRANSPORT PROPERTIES (GASES ONLY)
   CONDUCTIVITY IN UNITS OF MILLIWATTS/(CM)(K)

 VISC,MILLIPOISE  0.65671  0.59949

  WITH EQUILIBRIUM REACTIONS

 Cp, KJ/(KG)(K)    1.6535   1.6283
 CONDUCTIVITY      1.8433   1.6326
 PRANDTL NUMBER    0.5891   0.5979

  WITH FROZEN REACTIONS

 Cp, KJ/(KG)(K)    1.6328   1.6048
 CONDUCTIVITY      1.7996   1.6083
 PRANDTL NUMBER    0.5958   0.5982

 PERFORMANCE PARAMETERS

 Ae/At                      1.0000
 CSTAR, M/SEC               1279.3
 CF                         0.7064
 Ivac, M/SEC                1603.9
 Isp, M/SEC                  903.7


 MOLE FRACTIONS

 CH4              0.00000  0.00001
 *CO              0.31533  0.31199
 *CO2             0.02034  0.02370
 *H               0.00010  0.00002
 HCN              0.00002  0.00001
 *H2              0.19508  0.19850
 H2O              0.05655  0.05319
 NH3              0.00004  0.00004
 *N2              0.41252  0.41255

  * THERMODYNAMIC PROPERTIES FITTED TO 20000.K

    PRODUCTS WHICH WERE CONSIDERED BUT WHOSE MOLE FRACTIONS
    WERE LESS THAN 5.000000E-06 FOR ALL ASSIGNED CONDITIONS

 *C              *CH             CH2             CH3             CH2OH          
 CH3O            CH3OH           CH3OOH          *CN             CNN            
 COOH            *C2             C2H             C2H2,acetylene  C2H2,vinylidene
 CH2CO,ketene    O(CH)2O         HO(CO)2OH       C2H3,vinyl      CH3CN          
 CH3CO,acetyl    C2H4            C2H4O,ethylen-o CH3CHO,ethanal  CH3COOH        
 OHCH2COOH       C2H5            C2H6            CH3N2CH3        C2H5OH         
 CH3OCH3         CH3O2CH3        CCN             CNC             OCCN           
 C2N2            C2O             *C3             C3H3,1-propynl  C3H3,2-propynl 
 C3H4,allene     C3H4,propyne    C3H4,cyclo-     C3H5,allyl      C3H6,propylene 
 C3H6,cyclo-     C3H6O,propylox  C3H6O,acetone   C3H6O,propanal  C3H7,n-propyl  
 C3H7,i-propyl   C3H8            C3H8O,1propanol C3H8O,2propanol CNCOCN         
 C3O2            *C4             C4H2,butadiyne  C4H4,1,3-cyclo- C4H6,butadiene 
 C4H6,1butyne    C4H6,2butyne    C4H6,cyclo-     C4H8,1-butene   C4H8,cis2-buten
 C4H8,tr2-butene C4H8,isobutene  C4H8,cyclo-     (CH3COOH)2      C4H9,n-butyl   
 C4H9,i-butyl    C4H9,s-butyl    C4H9,t-butyl    C4H10,n-butane  C4H10,isobutane
 C4N2            *C5             C5H6,1,3cyclo-  C5H8,cyclo-     C5H10,1-pentene
 C5H10,cyclo-    C5H11,pentyl    C5H11,t-pentyl  C5H12,n-pentane C5H12,i-pentane
 CH3C(CH3)2CH3   C6H2            C6H5,phenyl     C6H5O,phenoxy   C6H6           
 C6H5OH,phenol   C6H10,cyclo-    C6H12,1-hexene  C6H12,cyclo-    C6H13,n-hexyl  
 C6H14,n-hexane  C7H7,benzyl     C7H8            C7H8O,cresol-mx C7H14,1-heptene
 C7H15,n-heptyl  C7H16,n-heptane C7H16,2-methylh C8H8,styrene    C8H10,ethylbenz
 C8H16,1-octene  C8H17,n-octyl   C8H18,n-octane  C8H18,isooctane C9H19,n-nonyl  
 C10H8,naphthale C10H21,n-decyl  C12H9,o-bipheny C12H10,biphenyl HCO            
 HCCN            HCCO            HNC             HNCO            HNO            
 HNO2            HNO3            HO2             HCHO,formaldehy HCOOH          
 H2O2            (HCOOH)2        *N              NCO             *NH            
 NH2             NH2OH           *NO             NO2             NO3            
 NCN             N2H2            NH2NO2          N2H4            N2O            
 N2O3            N2O4            N2O5            N3              N3H            
 *O              *OH             *O2             O3              C(gr)          
 H2O(cr)         H2O(L)         

 NOTE. WEIGHT FRACTION OF FUEL IN TOTAL FUELS AND OF OXIDANT IN TOTAL OXIDANTS






 POINT ITN      T            C           H           N           O 

   1    1    1976.586      -8.002      -8.732     -12.088     -23.931

 Pinf/Pt = 1.823393
   2    3    1728.270      -7.092      -8.815     -12.167     -25.971

 Pinf/Pt = 1.826990
   2    2    1727.504      -7.089      -8.815     -12.167     -25.978






              THEORETICAL ROCKET PERFORMANCE ASSUMING EQUILIBRIUM

           COMPOSITION DURING EXPANSION FROM INFINITE AREA COMBUSTOR

 Pin =   536.6 PSIA
 CASE =                

             REACTANT                    WT FRACTION      ENERGY      TEMP
                                          (SEE NOTE)     KJ/KG-MOL      K  
 FUEL        C4H6,butadiene               1.0000000         0.000      0.000
 OXIDANT     N2O                          1.0000000         0.000      0.000

 O/F=    4.00000  %FUEL= 20.000000  R,EQ.RATIO= 2.237645  PHI,EQ.RATIO= 2.237645

                 CHAMBER   THROAT
 Pinf/P            1.0000   1.8270
 P, BAR            37.000   20.252
 T, K             1976.59  1727.50
 RHO, KG/CU M    5.1100 0 3.2004 0
 H, KJ/KG         0.00024  -408.32
 U, KJ/KG         -724.06 -1041.12
 G, KJ/KG        -19499.2 -17450.3
 S, KJ/(KG)(K)     9.8651   9.8651

 M, (1/n)          22.697   22.698
 (dLV/dLP)t      -1.00011 -1.00009
 (dLV/dLT)p        1.0010   1.0006
 Cp, KJ/(KG)(K)    1.6535   1.6284
 GAMMAs            1.2851   1.2905
 SON VEL,M/SEC      964.6    903.7
 MACH NUMBER        0.000    1.000

 TRANSPORT PROPERTIES (GASES ONLY)
   CONDUCTIVITY IN UNITS OF MILLIWATTS/(CM)(K)

 VISC,MILLIPOISE  0.65671  0.59949

  WITH EQUILIBRIUM REACTIONS

 Cp, KJ/(KG)(K)    1.6535   1.6284
 CONDUCTIVITY      1.8429   1.6325
 PRANDTL NUMBER    0.5892   0.5980

  WITH FROZEN REACTIONS

 Cp, KJ/(KG)(K)    1.6328   1.6048
 CONDUCTIVITY      1.7996   1.6083
 PRANDTL NUMBER    0.5958   0.5982

 PERFORMANCE PARAMETERS

 Ae/At                     1.00000
 CSTAR, M/SEC               1279.3
 CF                         0.7064
 Ivac, M/SEC                1603.9
 Isp, M/SEC                  903.7


 MOLE FRACTIONS

 CH4              0.00000  0.00001
 *CO              0.31533  0.31199
 *CO2             0.02034  0.02370
 *H               0.00010  0.00002
 HCN              0.00002  0.00001
 *H2              0.19508  0.19849
 H2O              0.05655  0.05319
 NH3              0.00004  0.00004
 *N2              0.41252  0.41255

  * THERMODYNAMIC PROPERTIES FITTED TO 20000.K

    PRODUCTS WHICH WERE CONSIDERED BUT WHOSE MOLE FRACTIONS
    WERE LESS THAN 5.000000E-06 FOR ALL ASSIGNED CONDITIONS

 *C              *CH             CH2             CH3             CH2OH          
 CH3O            CH3OH           CH3OOH          *CN             CNN            
 COOH            *C2             C2H             C2H2,acetylene  C2H2,vinylidene
 CH2CO,ketene    O(CH)2O         HO(CO)2OH       C2H3,vinyl      CH3CN          
 CH3CO,acetyl    C2H4            C2H4O,ethylen-o CH3CHO,ethanal  CH3COOH        
 OHCH2COOH       C2H5            C2H6            CH3N2CH3        C2H5OH         
 CH3OCH3         CH3O2CH3        CCN             CNC             OCCN           
 C2N2            C2O             *C3             C3H3,1-propynl  C3H3,2-propynl 
 C3H4,allene     C3H4,propyne    C3H4,cyclo-     C3H5,allyl      C3H6,propylene 
 C3H6,cyclo-     C3H6O,propylox  C3H6O,acetone   C3H6O,propanal  C3H7,n-propyl  
 C3H7,i-propyl   C3H8            C3H8O,1propanol C3H8O,2propanol CNCOCN         
 C3O2            *C4             C4H2,butadiyne  C4H4,1,3-cyclo- C4H6,butadiene 
 C4H6,1butyne    C4H6,2butyne    C4H6,cyclo-     C4H8,1-butene   C4H8,cis2-buten
 C4H8,tr2-butene C4H8,isobutene  C4H8,cyclo-     (CH3COOH)2      C4H9,n-butyl   
 C4H9,i-butyl    C4H9,s-butyl    C4H9,t-butyl    C4H10,n-butane  C4H10,isobutane
 C4N2            *C5             C5H6,1,3cyclo-  C5H8,cyclo-     C5H10,1-pentene
 C5H10,cyclo-    C5H11,pentyl    C5H11,t-pentyl  C5H12,n-pentane C5H12,i-pentane
 CH3C(CH3)2CH3   C6H2            C6H5,phenyl     C6H5O,phenoxy   C6H6           
 C6H5OH,phenol   C6H10,cyclo-    C6H12,1-hexene  C6H12,cyclo-    C6H13,n-hexyl  
 C6H14,n-hexane  C7H7,benzyl     C7H8            C7H8O,cresol-mx C7H14,1-heptene
 C7H15,n-heptyl  C7H16,n-heptane C7H16,2-methylh C8H8,styrene    C8H10,ethylbenz
 C8H16,1-octene  C8H17,n-octyl   C8H18,n-octane  C8H18,isooctane C9H19,n-nonyl  
 C10H8,naphthale C10H21,n-decyl  C12H9,o-bipheny C12H10,biphenyl HCO            
 HCCN            HCCO            HNC             HNCO            HNO            
 HNO2            HNO3            HO2             HCHO,formaldehy HCOOH          
 H2O2            (HCOOH)2        *N              NCO             *NH            
 NH2             NH2OH           *NO             NO2             NO3            
 NCN             N2H2            NH2NO2          N2H4            N2O            
 N2O3            N2O4            N2O5            N3              N3H            
 *O              *OH             *O2             O3              C(gr)          
 H2O(cr)         H2O(L)         

 NOTE. WEIGHT FRACTION OF FUEL IN TOTAL FUELS AND OF OXIDANT IN TOTAL OXIDANTS






 O/F =   5.000000

                       EFFECTIVE FUEL     EFFECTIVE OXIDANT        MIXTURE
 ENTHALPY                  h(2)/R              h(1)/R               h0/R
 (KG-MOL)(K)/KG        0.00000000E+00      0.00000000E+00      0.00000000E+00

 KG-FORM.WT./KG             bi(2)               bi(1)               b0i
  *C                   0.73950221E-01      0.00000000E+00      0.12325037E-01
  *H                   0.11092533E+00      0.00000000E+00      0.18487555E-01
  *N                   0.00000000E+00      0.45441326E-01      0.37867772E-01
  *O                   0.00000000E+00      0.22720663E-01      0.18933886E-01

 POINT ITN      T            C           H           N           O 

   1    6    2386.692     -11.490      -9.426     -12.456     -20.356

 Pinf/Pt = 1.805594
   2    3    2113.646     -10.905      -9.504     -12.540     -21.839

 Pinf/Pt = 1.810647
   2    2    2112.417     -10.902      -9.504     -12.540     -21.846






              THEORETICAL ROCKET PERFORMANCE ASSUMING EQUILIBRIUM

           COMPOSITION DURING EXPANSION FROM INFINITE AREA COMBUSTOR

 Pin =   435.1 PSIA
 CASE =                

             REACTANT                    WT FRACTION      ENERGY      TEMP
                                          (SEE NOTE)     KJ/KG-MOL      K  
 FUEL        C4H6,butadiene               1.0000000         0.000      0.000
 OXIDANT     N2O                          1.0000000         0.000      0.000

 O/F=    5.00000  %FUEL= 16.666667  R,EQ.RATIO= 1.790116  PHI,EQ.RATIO= 1.790116

                 CHAMBER   THROAT
 Pinf/P            1.0000   1.8106
 P, BAR            30.000   16.569
 T, K             2386.69  2112.42
 RHO, KG/CU M    3.7305 0 2.3287 0
 H, KJ/KG         0.00000  -449.46
 U, KJ/KG         -804.18 -1160.94
 G, KJ/KG        -23276.9 -21051.4
 S, KJ/(KG)(K)     9.7528   9.7528

 M, (1/n)          24.676   24.686
 (dLV/dLP)t      -1.00030 -1.00009
 (dLV/dLT)p        1.0068   1.0022
 Cp, KJ/(KG)(K)    1.6741   1.6215
 GAMMAs            1.2559   1.2635
 SON VEL,M/SEC     1005.0    948.1
 MACH NUMBER        0.000    1.000

 TRANSPORT PROPERTIES (GASES ONLY)
   CONDUCTIVITY IN UNITS OF MILLIWATTS/(CM)(K)

 VISC,MILLIPOISE  0.76576  0.70368

  WITH EQUILIBRIUM REACTIONS

 Cp, KJ/(KG)(K)    1.6741   1.6215
 CONDUCTIVITY      2.1632   1.8239
 PRANDTL NUMBER    0.5926   0.6256

  WITH FROZEN REACTIONS

 Cp, KJ/(KG)(K)    1.6063   1.5845
 CONDUCTIVITY      1.9112   1.7232
 PRANDTL NUMBER    0.6436   0.6470

 PERFORMANCE PARAMETERS

 Ae/At                     1.00000
 CSTAR, M/SEC               1358.7
 CF                         0.6978
 Ivac, M/SEC                1698.5
 Isp, M/SEC                  948.1


 MOLE FRACTIONS

 *CO              0.25789  0.25414
 *CO2             0.04624  0.05012
 *H               0.00091  0.00028
 *H2              0.11090  0.11503
 H2O              0.11664  0.11299
 NH3              0.00001  0.00001
 *NO              0.00002  0.00000
 *N2              0.46720  0.46740
 *OH              0.00019  0.00004

  * THERMODYNAMIC PROPERTIES FITTED TO 20000.K

    PRODUCTS WHICH WERE CONSIDERED BUT WHOSE MOLE FRACTIONS
    WERE LESS THAN 5.000000E-06 FOR ALL ASSIGNED CONDITIONS

 *C              *CH             CH2             CH3             CH2OH          
 CH3O            CH4             CH3OH           CH3OOH          *CN            
 CNN             COOH            *C2             C2H             C2H2,acetylene 
 C2H2,vinylidene CH2CO,ketene    O(CH)2O         HO(CO)2OH       C2H3,vinyl     
 CH3CN           CH3CO,acetyl    C2H4            C2H4O,ethylen-o CH3CHO,ethanal 
 CH3COOH         OHCH2COOH       C2H5            C2H6            CH3N2CH3       
 C2H5OH          CH3OCH3         CH3O2CH3        CCN             CNC            
 OCCN            C2N2            C2O             *C3             C3H3,1-propynl 
 C3H3,2-propynl  C3H4,allene     C3H4,propyne    C3H4,cyclo-     C3H5,allyl     
 C3H6,propylene  C3H6,cyclo-     C3H6O,propylox  C3H6O,acetone   C3H6O,propanal 
 C3H7,n-propyl   C3H7,i-propyl   C3H8            C3H8O,1propanol C3H8O,2propanol
 CNCOCN          C3O2            *C4             C4H2,butadiyne  C4H4,1,3-cyclo-
 C4H6,butadiene  C4H6,1butyne    C4H6,2butyne    C4H6,cyclo-     C4H8,1-butene  
 C4H8,cis2-buten C4H8,tr2-butene C4H8,isobutene  C4H8,cyclo-     (CH3COOH)2     
 C4H9,n-butyl    C4H9,i-butyl    C4H9,s-butyl    C4H9,t-butyl    C4H10,n-butane 
 C4H10,isobutane C4N2            *C5             C5H6,1,3cyclo-  C5H8,cyclo-    
 C5H10,1-pentene C5H10,cyclo-    C5H11,pentyl    C5H11,t-pentyl  C5H12,n-pentane
 C5H12,i-pentane CH3C(CH3)2CH3   C6H2            C6H5,phenyl     C6H5O,phenoxy  
 C6H6            C6H5OH,phenol   C6H10,cyclo-    C6H12,1-hexene  C6H12,cyclo-   
 C6H13,n-hexyl   C6H14,n-hexane  C7H7,benzyl     C7H8            C7H8O,cresol-mx
 C7H14,1-heptene C7H15,n-heptyl  C7H16,n-heptane C7H16,2-methylh C8H8,styrene   
 C8H10,ethylbenz C8H16,1-octene  C8H17,n-octyl   C8H18,n-octane  C8H18,isooctane
 C9H19,n-nonyl   C10H8,naphthale C10H21,n-decyl  C12H9,o-bipheny C12H10,biphenyl
 HCN             HCO             HCCN            HCCO            HNC            
 HNCO            HNO             HNO2            HNO3            HO2            
 HCHO,formaldehy HCOOH           H2O2            (HCOOH)2        *N             
 NCO             *NH             NH2             NH2OH           NO2            
 NO3             NCN             N2H2            NH2NO2          N2H4           
 N2O             N2O3            N2O4            N2O5            N3             
 N3H             *O              *O2             O3              C(gr)          
 H2O(cr)         H2O(L)         

 NOTE. WEIGHT FRACTION OF FUEL IN TOTAL FUELS AND OF OXIDANT IN TOTAL OXIDANTS






 POINT ITN      T            C           H           N           O 

   1    2    2386.799     -11.457      -9.410     -12.440     -20.355

 Pinf/Pt = 1.805658
   2    3    2113.656     -10.872      -9.487     -12.524     -21.839

 Pinf/Pt = 1.810669
   2    2    2112.437     -10.869      -9.488     -12.524     -21.846






              THEORETICAL ROCKET PERFORMANCE ASSUMING EQUILIBRIUM

           COMPOSITION DURING EXPANSION FROM INFINITE AREA COMBUSTOR

 Pin =   449.6 PSIA
 CASE =                

             REACTANT                    WT FRACTION      ENERGY      TEMP
                                          (SEE NOTE)     KJ/KG-MOL      K  
 FUEL        C4H6,butadiene               1.0000000         0.000      0.000
 OXIDANT     N2O                          1.0000000         0.000      0.000

 O/F=    5.00000  %FUEL= 16.666667  R,EQ.RATIO= 1.790116  PHI,EQ.RATIO= 1.790116

                 CHAMBER   THROAT
 Pinf/P            1.0000   1.8107
 P, BAR            31.000   17.121
 T, K             2386.80  2112.44
 RHO, KG/CU M    3.8547 0 2.4063 0
 H, KJ/KG         0.00000  -449.48
 U, KJ/KG         -804.21 -1160.97
 G, KJ/KG        -23251.6 -21028.3
 S, KJ/(KG)(K)     9.7418   9.7418

 M, (1/n)          24.676   24.686
 (dLV/dLP)t      -1.00029 -1.00009
 (dLV/dLT)p        1.0067   1.0021
 Cp, KJ/(KG)(K)    1.6732   1.6212
 GAMMAs            1.2560   1.2635
 SON VEL,M/SEC     1005.0    948.1
 MACH NUMBER        0.000    1.000

 TRANSPORT PROPERTIES (GASES ONLY)
   CONDUCTIVITY IN UNITS OF MILLIWATTS/(CM)(K)

 VISC,MILLIPOISE  0.76578  0.70368

  WITH EQUILIBRIUM REACTIONS

 Cp, KJ/(KG)(K)    1.6732   1.6212
 CONDUCTIVITY      2.1595   1.8225
 PRANDTL NUMBER    0.5933   0.6259

  WITH FROZEN REACTIONS

 Cp, KJ/(KG)(K)    1.6063   1.5845
 CONDUCTIVITY      1.9112   1.7232
 PRANDTL NUMBER    0.6436   0.6470

 PERFORMANCE PARAMETERS

 Ae/At                      1.0000
 CSTAR, M/SEC               1358.7
 CF                         0.6978
 Ivac, M/SEC                1698.5
 Isp, M/SEC                  948.1


 MOLE FRACTIONS

 *CO              0.25790  0.25414
 *CO2             0.04623  0.05012
 *H               0.00089  0.00028
 *H2              0.11090  0.11503
 H2O              0.11664  0.11299
 NH3              0.00001  0.00001
 *NO              0.00002  0.00000
 *N2              0.46720  0.46740
 *OH              0.00019  0.00004

  * THERMODYNAMIC PROPERTIES FITTED TO 20000.K

    PRODUCTS WHICH WERE CONSIDERED BUT WHOSE MOLE FRACTIONS
    WERE LESS THAN 5.000000E-06 FOR ALL ASSIGNED CONDITIONS

 *C              *CH             CH2             CH3             CH2OH          
 CH3O            CH4             CH3OH           CH3OOH          *CN            
 CNN             COOH            *C2             C2H             C2H2,acetylene 
 C2H2,vinylidene CH2CO,ketene    O(CH)2O         HO(CO)2OH       C2H3,vinyl     
 CH3CN           CH3CO,acetyl    C2H4            C2H4O,ethylen-o CH3CHO,ethanal 
 CH3COOH         OHCH2COOH       C2H5            C2H6            CH3N2CH3       
 C2H5OH          CH3OCH3         CH3O2CH3        CCN             CNC            
 OCCN            C2N2            C2O             *C3             C3H3,1-propynl 
 C3H3,2-propynl  C3H4,allene     C3H4,propyne    C3H4,cyclo-     C3H5,allyl     
 C3H6,propylene  C3H6,cyclo-     C3H6O,propylox  C3H6O,acetone   C3H6O,propanal 
 C3H7,n-propyl   C3H7,i-propyl   C3H8            C3H8O,1propanol C3H8O,2propanol
 CNCOCN          C3O2            *C4             C4H2,butadiyne  C4H4,1,3-cyclo-
 C4H6,butadiene  C4H6,1butyne    C4H6,2butyne    C4H6,cyclo-     C4H8,1-butene  
 C4H8,cis2-buten C4H8,tr2-butene C4H8,isobutene  C4H8,cyclo-     (CH3COOH)2     
 C4H9,n-butyl    C4H9,i-butyl    C4H9,s-butyl    C4H9,t-butyl    C4H10,n-butane 
 C4H10,isobutane C4N2            *C5             C5H6,1,3cyclo-  C5H8,cyclo-    
 C5H10,1-pentene C5H10,cyclo-    C5H11,pentyl    C5H11,t-pentyl  C5H12,n-pentane
 C5H12,i-pentane CH3C(CH3)2CH3   C6H2            C6H5,phenyl     C6H5O,phenoxy  
 C6H6            C6H5OH,phenol   C6H10,cyclo-    C6H12,1-hexene  C6H12,cyclo-   
 C6H13,n-hexyl   C6H14,n-hexane  C7H7,benzyl     C7H8            C7H8O,cresol-mx
 C7H14,1-heptene C7H15,n-heptyl  C7H16,n-heptane C7H16,2-methylh C8H8,styrene   
 C8H10,ethylbenz C8H16,1-octene  C8H17,n-octyl   C8H18,n-octane  C8H18,isooctane
 C9H19,n-nonyl   C10H8,naphthale C10H21,n-decyl  C12H9,o-bipheny C12H10,biphenyl
 HCN             HCO             HCCN            HCCO            HNC            
 HNCO            HNO             HNO2            HNO3            HO2            
 HCHO,formaldehy HCOOH           H2O2            (HCOOH)2        *N             
 NCO             *NH             NH2             NH2OH           NO2            
 NO3             NCN             N2H2            NH2NO2          N2H4           
 N2O             N2O3            N2O4            N2O5            N3             
 N3H             *O              *O2             O3              C(gr)          
 H2O(cr)         H2O(L)         

 NOTE. WEIGHT FRACTION OF FUEL IN TOTAL FUELS AND OF OXIDANT IN TOTAL OXIDANTS






 POINT ITN      T            C           H           N           O 

   1    2    2386.901     -11.426      -9.394     -12.424     -20.355

 Pinf/Pt = 1.805719
   2    3    2113.666     -10.840      -9.471     -12.508     -21.838

 Pinf/Pt = 1.810691
   2    2    2112.456     -10.837      -9.472     -12.508     -21.846






              THEORETICAL ROCKET PERFORMANCE ASSUMING EQUILIBRIUM

           COMPOSITION DURING EXPANSION FROM INFINITE AREA COMBUSTOR

 Pin =   464.1 PSIA
 CASE =                

             REACTANT                    WT FRACTION      ENERGY      TEMP
                                          (SEE NOTE)     KJ/KG-MOL      K  
 FUEL        C4H6,butadiene               1.0000000         0.000      0.000
 OXIDANT     N2O                          1.0000000         0.000      0.000

 O/F=    5.00000  %FUEL= 16.666667  R,EQ.RATIO= 1.790116  PHI,EQ.RATIO= 1.790116

                 CHAMBER   THROAT
 Pinf/P            1.0000   1.8107
 P, BAR            32.000   17.673
 T, K             2386.90  2112.46
 RHO, KG/CU M    3.9789 0 2.4839 0
 H, KJ/KG         0.00000  -449.49
 U, KJ/KG         -804.24 -1160.99
 G, KJ/KG        -23227.1 -21005.9
 S, KJ/(KG)(K)     9.7311   9.7311

 M, (1/n)          24.677   24.686
 (dLV/dLP)t      -1.00029 -1.00009
 (dLV/dLT)p        1.0066   1.0021
 Cp, KJ/(KG)(K)    1.6723   1.6209
 GAMMAs            1.2561   1.2635
 SON VEL,M/SEC     1005.1    948.2
 MACH NUMBER        0.000    1.000

 TRANSPORT PROPERTIES (GASES ONLY)
   CONDUCTIVITY IN UNITS OF MILLIWATTS/(CM)(K)

 VISC,MILLIPOISE  0.76580  0.70368

  WITH EQUILIBRIUM REACTIONS

 Cp, KJ/(KG)(K)    1.6723   1.6209
 CONDUCTIVITY      2.1560   1.8213
 PRANDTL NUMBER    0.5940   0.6263

  WITH FROZEN REACTIONS

 Cp, KJ/(KG)(K)    1.6063   1.5845
 CONDUCTIVITY      1.9113   1.7232
 PRANDTL NUMBER    0.6436   0.6470

 PERFORMANCE PARAMETERS

 Ae/At                     1.00000
 CSTAR, M/SEC               1358.7
 CF                         0.6978
 Ivac, M/SEC                1698.6
 Isp, M/SEC                  948.1


 MOLE FRACTIONS

 *CO              0.25790  0.25414
 *CO2             0.04623  0.05012
 *H               0.00088  0.00027
 *H2              0.11091  0.11503
 H2O              0.11665  0.11299
 NH3              0.00001  0.00001
 *NO              0.00002  0.00000
 *N2              0.46721  0.46740
 *OH              0.00019  0.00004

  * THERMODYNAMIC PROPERTIES FITTED TO 20000.K

    PRODUCTS WHICH WERE CONSIDERED BUT WHOSE MOLE FRACTIONS
    WERE LESS THAN 5.000000E-06 FOR ALL ASSIGNED CONDITIONS

 *C              *CH             CH2             CH3             CH2OH          
 CH3O            CH4             CH3OH           CH3OOH          *CN            
 CNN             COOH            *C2             C2H             C2H2,acetylene 
 C2H2,vinylidene CH2CO,ketene    O(CH)2O         HO(CO)2OH       C2H3,vinyl     
 CH3CN           CH3CO,acetyl    C2H4            C2H4O,ethylen-o CH3CHO,ethanal 
 CH3COOH         OHCH2COOH       C2H5            C2H6            CH3N2CH3       
 C2H5OH          CH3OCH3         CH3O2CH3        CCN             CNC            
 OCCN            C2N2            C2O             *C3             C3H3,1-propynl 
 C3H3,2-propynl  C3H4,allene     C3H4,propyne    C3H4,cyclo-     C3H5,allyl     
 C3H6,propylene  C3H6,cyclo-     C3H6O,propylox  C3H6O,acetone   C3H6O,propanal 
 C3H7,n-propyl   C3H7,i-propyl   C3H8            C3H8O,1propanol C3H8O,2propanol
 CNCOCN          C3O2            *C4             C4H2,butadiyne  C4H4,1,3-cyclo-
 C4H6,butadiene  C4H6,1butyne    C4H6,2butyne    C4H6,cyclo-     C4H8,1-butene  
 C4H8,cis2-buten C4H8,tr2-butene C4H8,isobutene  C4H8,cyclo-     (CH3COOH)2     
 C4H9,n-butyl    C4H9,i-butyl    C4H9,s-butyl    C4H9,t-butyl    C4H10,n-butane 
 C4H10,isobutane C4N2            *C5             C5H6,1,3cyclo-  C5H8,cyclo-    
 C5H10,1-pentene C5H10,cyclo-    C5H11,pentyl    C5H11,t-pentyl  C5H12,n-pentane
 C5H12,i-pentane CH3C(CH3)2CH3   C6H2            C6H5,phenyl     C6H5O,phenoxy  
 C6H6            C6H5OH,phenol   C6H10,cyclo-    C6H12,1-hexene  C6H12,cyclo-   
 C6H13,n-hexyl   C6H14,n-hexane  C7H7,benzyl     C7H8            C7H8O,cresol-mx
 C7H14,1-heptene C7H15,n-heptyl  C7H16,n-heptane C7H16,2-methylh C8H8,styrene   
 C8H10,ethylbenz C8H16,1-octene  C8H17,n-octyl   C8H18,n-octane  C8H18,isooctane
 C9H19,n-nonyl   C10H8,naphthale C10H21,n-decyl  C12H9,o-bipheny C12H10,biphenyl
 HCN             HCO             HCCN            HCCO            HNC            
 HNCO            HNO             HNO2            HNO3            HO2            
 HCHO,formaldehy HCOOH           H2O2            (HCOOH)2        *N             
 NCO             *NH             NH2             NH2OH           NO2            
 NO3             NCN             N2H2            NH2NO2          N2H4           
 N2O             N2O3            N2O4            N2O5            N3             
 N3H             *O              *O2             O3              C(gr)          
 H2O(cr)         H2O(L)         

 NOTE. WEIGHT FRACTION OF FUEL IN TOTAL FUELS AND OF OXIDANT IN TOTAL OXIDANTS






 POINT ITN      T            C           H           N           O 

   1    2    2386.998     -11.396      -9.379     -12.409     -20.354

 Pinf/Pt = 1.805778
   2    3    2113.675     -10.810      -9.456     -12.492     -21.838

 Pinf/Pt = 1.810711
   2    2    2112.474     -10.807      -9.456     -12.493     -21.846






              THEORETICAL ROCKET PERFORMANCE ASSUMING EQUILIBRIUM

           COMPOSITION DURING EXPANSION FROM INFINITE AREA COMBUSTOR

 Pin =   478.6 PSIA
 CASE =                

             REACTANT                    WT FRACTION      ENERGY      TEMP
                                          (SEE NOTE)     KJ/KG-MOL      K  
 FUEL        C4H6,butadiene               1.0000000         0.000      0.000
 OXIDANT     N2O                          1.0000000         0.000      0.000

 O/F=    5.00000  %FUEL= 16.666667  R,EQ.RATIO= 1.790116  PHI,EQ.RATIO= 1.790116

                 CHAMBER   THROAT
 Pinf/P            1.0000   1.8107
 P, BAR            33.000   18.225
 T, K             2387.00  2112.47
 RHO, KG/CU M    4.1031 0 2.5615 0
 H, KJ/KG         0.00000  -449.51
 U, KJ/KG         -804.26 -1161.01
 G, KJ/KG        -23203.3 -20984.2
 S, KJ/(KG)(K)     9.7207   9.7207

 M, (1/n)          24.677   24.686
 (dLV/dLP)t      -1.00028 -1.00009
 (dLV/dLT)p        1.0065   1.0021
 Cp, KJ/(KG)(K)    1.6715   1.6206
 GAMMAs            1.2562   1.2636
 SON VEL,M/SEC     1005.1    948.2
 MACH NUMBER        0.000    1.000

 TRANSPORT PROPERTIES (GASES ONLY)
   CONDUCTIVITY IN UNITS OF MILLIWATTS/(CM)(K)

 VISC,MILLIPOISE  0.76582  0.70369

  WITH EQUILIBRIUM REACTIONS

 Cp, KJ/(KG)(K)    1.6715   1.6206
 CONDUCTIVITY      2.1526   1.8201
 PRANDTL NUMBER    0.5947   0.6266

  WITH FROZEN REACTIONS

 Cp, KJ/(KG)(K)    1.6063   1.5845
 CONDUCTIVITY      1.9113   1.7232
 PRANDTL NUMBER    0.6436   0.6470

 PERFORMANCE PARAMETERS

 Ae/At                      1.0000
 CSTAR, M/SEC               1358.7
 CF                         0.6978
 Ivac, M/SEC                1698.6
 Isp, M/SEC                  948.2


 MOLE FRACTIONS

 *CO              0.25790  0.25414
 *CO2             0.04623  0.05012
 *H               0.00087  0.00027
 *H2              0.11091  0.11503
 H2O              0.11665  0.11300
 NH3              0.00001  0.00001
 *NO              0.00002  0.00000
 *N2              0.46721  0.46740
 *OH              0.00018  0.00004

  * THERMODYNAMIC PROPERTIES FITTED TO 20000.K

    PRODUCTS WHICH WERE CONSIDERED BUT WHOSE MOLE FRACTIONS
    WERE LESS THAN 5.000000E-06 FOR ALL ASSIGNED CONDITIONS

 *C              *CH             CH2             CH3             CH2OH          
 CH3O            CH4             CH3OH           CH3OOH          *CN            
 CNN             COOH            *C2             C2H             C2H2,acetylene 
 C2H2,vinylidene CH2CO,ketene    O(CH)2O         HO(CO)2OH       C2H3,vinyl     
 CH3CN           CH3CO,acetyl    C2H4            C2H4O,ethylen-o CH3CHO,ethanal 
 CH3COOH         OHCH2COOH       C2H5            C2H6            CH3N2CH3       
 C2H5OH          CH3OCH3         CH3O2CH3        CCN             CNC            
 OCCN            C2N2            C2O             *C3             C3H3,1-propynl 
 C3H3,2-propynl  C3H4,allene     C3H4,propyne    C3H4,cyclo-     C3H5,allyl     
 C3H6,propylene  C3H6,cyclo-     C3H6O,propylox  C3H6O,acetone   C3H6O,propanal 
 C3H7,n-propyl   C3H7,i-propyl   C3H8            C3H8O,1propanol C3H8O,2propanol
 CNCOCN          C3O2            *C4             C4H2,butadiyne  C4H4,1,3-cyclo-
 C4H6,butadiene  C4H6,1butyne    C4H6,2butyne    C4H6,cyclo-     C4H8,1-butene  
 C4H8,cis2-buten C4H8,tr2-butene C4H8,isobutene  C4H8,cyclo-     (CH3COOH)2     
 C4H9,n-butyl    C4H9,i-butyl    C4H9,s-butyl    C4H9,t-butyl    C4H10,n-butane 
 C4H10,isobutane C4N2            *C5             C5H6,1,3cyclo-  C5H8,cyclo-    
 C5H10,1-pentene C5H10,cyclo-    C5H11,pentyl    C5H11,t-pentyl  C5H12,n-pentane
 C5H12,i-pentane CH3C(CH3)2CH3   C6H2            C6H5,phenyl     C6H5O,phenoxy  
 C6H6            C6H5OH,phenol   C6H10,cyclo-    C6H12,1-hexene  C6H12,cyclo-   
 C6H13,n-hexyl   C6H14,n-hexane  C7H7,benzyl     C7H8            C7H8O,cresol-mx
 C7H14,1-heptene C7H15,n-heptyl  C7H16,n-heptane C7H16,2-methylh C8H8,styrene   
 C8H10,ethylbenz C8H16,1-octene  C8H17,n-octyl   C8H18,n-octane  C8H18,isooctane
 C9H19,n-nonyl   C10H8,naphthale C10H21,n-decyl  C12H9,o-bipheny C12H10,biphenyl
 HCN             HCO             HCCN            HCCO            HNC            
 HNCO            HNO             HNO2            HNO3            HO2            
 HCHO,formaldehy HCOOH           H2O2            (HCOOH)2        *N             
 NCO             *NH             NH2             NH2OH           NO2            
 NO3             NCN             N2H2            NH2NO2          N2H4           
 N2O             N2O3            N2O4            N2O5            N3             
 N3H             *O              *O2             O3              C(gr)          
 H2O(cr)         H2O(L)         

 NOTE. WEIGHT FRACTION OF FUEL IN TOTAL FUELS AND OF OXIDANT IN TOTAL OXIDANTS






 POINT ITN      T            C           H           N           O 

   1    2    2387.090     -11.366      -9.364     -12.394     -20.354

 Pinf/Pt = 1.805833
   2    3    2113.683     -10.780      -9.441     -12.477     -21.838

 Pinf/Pt = 1.810731
   2    2    2112.491     -10.777      -9.441     -12.478     -21.846






              THEORETICAL ROCKET PERFORMANCE ASSUMING EQUILIBRIUM

           COMPOSITION DURING EXPANSION FROM INFINITE AREA COMBUSTOR

 Pin =   493.1 PSIA
 CASE =                

             REACTANT                    WT FRACTION      ENERGY      TEMP
                                          (SEE NOTE)     KJ/KG-MOL      K  
 FUEL        C4H6,butadiene               1.0000000         0.000      0.000
 OXIDANT     N2O                          1.0000000         0.000      0.000

 O/F=    5.00000  %FUEL= 16.666667  R,EQ.RATIO= 1.790116  PHI,EQ.RATIO= 1.790116

                 CHAMBER   THROAT
 Pinf/P            1.0000   1.8107
 P, BAR            34.000   18.777
 T, K             2387.09  2112.49
 RHO, KG/CU M    4.2273 0 2.6391 0
 H, KJ/KG         0.00000  -449.53
 U, KJ/KG         -804.29 -1161.03
 G, KJ/KG        -23180.1 -20963.1
 S, KJ/(KG)(K)     9.7106   9.7106

 M, (1/n)          24.677   24.686
 (dLV/dLP)t      -1.00028 -1.00009
 (dLV/dLT)p        1.0064   1.0020
 Cp, KJ/(KG)(K)    1.6708   1.6204
 GAMMAs            1.2562   1.2636
 SON VEL,M/SEC     1005.2    948.2
 MACH NUMBER        0.000    1.000

 TRANSPORT PROPERTIES (GASES ONLY)
   CONDUCTIVITY IN UNITS OF MILLIWATTS/(CM)(K)

 VISC,MILLIPOISE  0.76585  0.70369

  WITH EQUILIBRIUM REACTIONS

 Cp, KJ/(KG)(K)    1.6708   1.6204
 CONDUCTIVITY      2.1493   1.8189
 PRANDTL NUMBER    0.5953   0.6269

  WITH FROZEN REACTIONS

 Cp, KJ/(KG)(K)    1.6063   1.5845
 CONDUCTIVITY      1.9113   1.7232
 PRANDTL NUMBER    0.6436   0.6470

 PERFORMANCE PARAMETERS

 Ae/At                     1.00000
 CSTAR, M/SEC               1358.7
 CF                         0.6978
 Ivac, M/SEC                1698.6
 Isp, M/SEC                  948.2


 MOLE FRACTIONS

 *CO              0.25791  0.25414
 *CO2             0.04623  0.05011
 *H               0.00086  0.00026
 *H2              0.11091  0.11503
 H2O              0.11666  0.11300
 NH3              0.00001  0.00001
 *NO              0.00002  0.00000
 *N2              0.46722  0.46740
 *OH              0.00018  0.00004

  * THERMODYNAMIC PROPERTIES FITTED TO 20000.K

    PRODUCTS WHICH WERE CONSIDERED BUT WHOSE MOLE FRACTIONS
    WERE LESS THAN 5.000000E-06 FOR ALL ASSIGNED CONDITIONS

 *C              *CH             CH2             CH3             CH2OH          
 CH3O            CH4             CH3OH           CH3OOH          *CN            
 CNN             COOH            *C2             C2H             C2H2,acetylene 
 C2H2,vinylidene CH2CO,ketene    O(CH)2O         HO(CO)2OH       C2H3,vinyl     
 CH3CN           CH3CO,acetyl    C2H4            C2H4O,ethylen-o CH3CHO,ethanal 
 CH3COOH         OHCH2COOH       C2H5            C2H6            CH3N2CH3       
 C2H5OH          CH3OCH3         CH3O2CH3        CCN             CNC            
 OCCN            C2N2            C2O             *C3             C3H3,1-propynl 
 C3H3,2-propynl  C3H4,allene     C3H4,propyne    C3H4,cyclo-     C3H5,allyl     
 C3H6,propylene  C3H6,cyclo-     C3H6O,propylox  C3H6O,acetone   C3H6O,propanal 
 C3H7,n-propyl   C3H7,i-propyl   C3H8            C3H8O,1propanol C3H8O,2propanol
 CNCOCN          C3O2            *C4             C4H2,butadiyne  C4H4,1,3-cyclo-
 C4H6,butadiene  C4H6,1butyne    C4H6,2butyne    C4H6,cyclo-     C4H8,1-butene  
 C4H8,cis2-buten C4H8,tr2-butene C4H8,isobutene  C4H8,cyclo-     (CH3COOH)2     
 C4H9,n-butyl    C4H9,i-butyl    C4H9,s-butyl    C4H9,t-butyl    C4H10,n-butane 
 C4H10,isobutane C4N2            *C5             C5H6,1,3cyclo-  C5H8,cyclo-    
 C5H10,1-pentene C5H10,cyclo-    C5H11,pentyl    C5H11,t-pentyl  C5H12,n-pentane
 C5H12,i-pentane CH3C(CH3)2CH3   C6H2            C6H5,phenyl     C6H5O,phenoxy  
 C6H6            C6H5OH,phenol   C6H10,cyclo-    C6H12,1-hexene  C6H12,cyclo-   
 C6H13,n-hexyl   C6H14,n-hexane  C7H7,benzyl     C7H8            C7H8O,cresol-mx
 C7H14,1-heptene C7H15,n-heptyl  C7H16,n-heptane C7H16,2-methylh C8H8,styrene   
 C8H10,ethylbenz C8H16,1-octene  C8H17,n-octyl   C8H18,n-octane  C8H18,isooctane
 C9H19,n-nonyl   C10H8,naphthale C10H21,n-decyl  C12H9,o-bipheny C12H10,biphenyl
 HCN             HCO             HCCN            HCCO            HNC            
 HNCO            HNO             HNO2            HNO3            HO2            
 HCHO,formaldehy HCOOH           H2O2            (HCOOH)2        *N             
 NCO             *NH             NH2             NH2OH           NO2            
 NO3             NCN             N2H2            NH2NO2          N2H4           
 N2O             N2O3            N2O4            N2O5            N3             
 N3H             *O              *O2             O3              C(gr)          
 H2O(cr)         H2O(L)         

 NOTE. WEIGHT FRACTION OF FUEL IN TOTAL FUELS AND OF OXIDANT IN TOTAL OXIDANTS






 POINT ITN      T            C           H           N           O 

   1    2    2387.179     -11.337      -9.349     -12.380     -20.354

 Pinf/Pt = 1.805887
   2    3    2113.691     -10.751      -9.427     -12.463     -21.838

 Pinf/Pt = 1.810750
   2    2    2112.508     -10.748      -9.427     -12.463     -21.846






              THEORETICAL ROCKET PERFORMANCE ASSUMING EQUILIBRIUM

           COMPOSITION DURING EXPANSION FROM INFINITE AREA COMBUSTOR

 Pin =   507.6 PSIA
 CASE =                

             REACTANT                    WT FRACTION      ENERGY      TEMP
                                          (SEE NOTE)     KJ/KG-MOL      K  
 FUEL        C4H6,butadiene               1.0000000         0.000      0.000
 OXIDANT     N2O                          1.0000000         0.000      0.000

 O/F=    5.00000  %FUEL= 16.666667  R,EQ.RATIO= 1.790116  PHI,EQ.RATIO= 1.790116

                 CHAMBER   THROAT
 Pinf/P            1.0000   1.8107
 P, BAR            35.000   19.329
 T, K             2387.18  2112.51
 RHO, KG/CU M    4.3515 0 2.7166 0
 H, KJ/KG         0.00000  -449.54
 U, KJ/KG         -804.31 -1161.05
 G, KJ/KG        -23157.7 -20942.7
 S, KJ/(KG)(K)     9.7009   9.7009

 M, (1/n)          24.677   24.686
 (dLV/dLP)t      -1.00028 -1.00009
 (dLV/dLT)p        1.0063   1.0020
 Cp, KJ/(KG)(K)    1.6700   1.6201
 GAMMAs            1.2563   1.2637
 SON VEL,M/SEC     1005.2    948.2
 MACH NUMBER        0.000    1.000

 TRANSPORT PROPERTIES (GASES ONLY)
   CONDUCTIVITY IN UNITS OF MILLIWATTS/(CM)(K)

 VISC,MILLIPOISE  0.76586  0.70370

  WITH EQUILIBRIUM REACTIONS

 Cp, KJ/(KG)(K)    1.6700   1.6201
 CONDUCTIVITY      2.1462   1.8178
 PRANDTL NUMBER    0.5959   0.6271

  WITH FROZEN REACTIONS

 Cp, KJ/(KG)(K)    1.6063   1.5845
 CONDUCTIVITY      1.9114   1.7232
 PRANDTL NUMBER    0.6436   0.6470

 PERFORMANCE PARAMETERS

 Ae/At                      1.0000
 CSTAR, M/SEC               1358.7
 CF                         0.6979
 Ivac, M/SEC                1698.6
 Isp, M/SEC                  948.2


 MOLE FRACTIONS

 *CO              0.25791  0.25414
 *CO2             0.04623  0.05011
 *H               0.00084  0.00026
 *H2              0.11092  0.11503
 H2O              0.11666  0.11300
 NH3              0.00001  0.00001
 *NO              0.00002  0.00000
 *N2              0.46722  0.46740
 *OH              0.00018  0.00003

  * THERMODYNAMIC PROPERTIES FITTED TO 20000.K

    PRODUCTS WHICH WERE CONSIDERED BUT WHOSE MOLE FRACTIONS
    WERE LESS THAN 5.000000E-06 FOR ALL ASSIGNED CONDITIONS

 *C              *CH             CH2             CH3             CH2OH          
 CH3O            CH4             CH3OH           CH3OOH          *CN            
 CNN             COOH            *C2             C2H             C2H2,acetylene 
 C2H2,vinylidene CH2CO,ketene    O(CH)2O         HO(CO)2OH       C2H3,vinyl     
 CH3CN           CH3CO,acetyl    C2H4            C2H4O,ethylen-o CH3CHO,ethanal 
 CH3COOH         OHCH2COOH       C2H5            C2H6            CH3N2CH3       
 C2H5OH          CH3OCH3         CH3O2CH3        CCN             CNC            
 OCCN            C2N2            C2O             *C3             C3H3,1-propynl 
 C3H3,2-propynl  C3H4,allene     C3H4,propyne    C3H4,cyclo-     C3H5,allyl     
 C3H6,propylene  C3H6,cyclo-     C3H6O,propylox  C3H6O,acetone   C3H6O,propanal 
 C3H7,n-propyl   C3H7,i-propyl   C3H8            C3H8O,1propanol C3H8O,2propanol
 CNCOCN          C3O2            *C4             C4H2,butadiyne  C4H4,1,3-cyclo-
 C4H6,butadiene  C4H6,1butyne    C4H6,2butyne    C4H6,cyclo-     C4H8,1-butene  
 C4H8,cis2-buten C4H8,tr2-butene C4H8,isobutene  C4H8,cyclo-     (CH3COOH)2     
 C4H9,n-butyl    C4H9,i-butyl    C4H9,s-butyl    C4H9,t-butyl    C4H10,n-butane 
 C4H10,isobutane C4N2            *C5             C5H6,1,3cyclo-  C5H8,cyclo-    
 C5H10,1-pentene C5H10,cyclo-    C5H11,pentyl    C5H11,t-pentyl  C5H12,n-pentane
 C5H12,i-pentane CH3C(CH3)2CH3   C6H2            C6H5,phenyl     C6H5O,phenoxy  
 C6H6            C6H5OH,phenol   C6H10,cyclo-    C6H12,1-hexene  C6H12,cyclo-   
 C6H13,n-hexyl   C6H14,n-hexane  C7H7,benzyl     C7H8            C7H8O,cresol-mx
 C7H14,1-heptene C7H15,n-heptyl  C7H16,n-heptane C7H16,2-methylh C8H8,styrene   
 C8H10,ethylbenz C8H16,1-octene  C8H17,n-octyl   C8H18,n-octane  C8H18,isooctane
 C9H19,n-nonyl   C10H8,naphthale C10H21,n-decyl  C12H9,o-bipheny C12H10,biphenyl
 HCN             HCO             HCCN            HCCO            HNC            
 HNCO            HNO             HNO2            HNO3            HO2            
 HCHO,formaldehy HCOOH           H2O2            (HCOOH)2        *N             
 NCO             *NH             NH2             NH2OH           NO2            
 NO3             NCN             N2H2            NH2NO2          N2H4           
 N2O             N2O3            N2O4            N2O5            N3             
 N3H             *O              *O2             O3              C(gr)          
 H2O(cr)         H2O(L)         

 NOTE. WEIGHT FRACTION OF FUEL IN TOTAL FUELS AND OF OXIDANT IN TOTAL OXIDANTS






 POINT ITN      T            C           H           N           O 

   1    2    2387.265     -11.310      -9.335     -12.365     -20.353

 Pinf/Pt = 1.805938
[...]
 FUEL        C4H6,butadiene               1.0000000         0.000      0.000
 OXIDANT     N2O                          1.0000000         0.000      0.000

 O/F=    9.00000  %FUEL= 10.000000  R,EQ.RATIO= 0.994509  PHI,EQ.RATIO= 0.994509

                 CHAMBER   THROAT
 Pinf/P            1.0000   1.7424
 P, BAR            34.000   19.513
 T, K             2909.27  2728.88
 RHO, KG/CU M    4.0661 0 2.5095 0
 H, KJ/KG         0.00000  -447.87
 U, KJ/KG         -836.18 -1225.46
 G, KJ/KG        -26253.0 -25073.1
 S, KJ/(KG)(K)     9.0239   9.0239

 M, (1/n)          28.928   29.179
 (dLV/dLP)t      -1.01016 -1.00773
 (dLV/dLT)p        1.2342   1.1906
 Cp, KJ/(KG)(K)    3.1215   2.8923
 GAMMAs            1.1496   1.1520
 SON VEL,M/SEC      980.4    946.4
 MACH NUMBER        0.000    1.000

 TRANSPORT PROPERTIES (GASES ONLY)
   CONDUCTIVITY IN UNITS OF MILLIWATTS/(CM)(K)

 VISC,MILLIPOISE  0.91810  0.87927

  WITH EQUILIBRIUM REACTIONS

 Cp, KJ/(KG)(K)    3.1215   2.8923
 CONDUCTIVITY      4.6736   4.0336
 PRANDTL NUMBER    0.6132   0.6305

  WITH FROZEN REACTIONS

 Cp, KJ/(KG)(K)    1.5213   1.5151
 CONDUCTIVITY      1.9735   1.8704
 PRANDTL NUMBER    0.7077   0.7122

 PERFORMANCE PARAMETERS

 Ae/At                      1.0000
 CSTAR, M/SEC               1431.5
 CF                         0.6611
 Ivac, M/SEC                1768.0
 Isp, M/SEC                  946.4


 MOLE FRACTIONS

 *CO              0.04821  0.03636
 *CO2             0.16571  0.17942
 *H               0.00157  0.00097
 HO2              0.00002  0.00001
 *H2              0.00594  0.00454
 H2O              0.14719  0.15215
 *NO              0.01113  0.00783
 NO2              0.00001  0.00001
 *N2              0.58596  0.59275
 *O               0.00195  0.00115
 *OH              0.01304  0.00932
 *O2              0.01926  0.01550

  * THERMODYNAMIC PROPERTIES FITTED TO 20000.K

    PRODUCTS WHICH WERE CONSIDERED BUT WHOSE MOLE FRACTIONS
    WERE LESS THAN 5.000000E-06 FOR ALL ASSIGNED CONDITIONS

 *C              *CH             CH2             CH3             CH2OH          
 CH3O            CH4             CH3OH           CH3OOH          *CN            
 CNN             COOH            *C2             C2H             C2H2,acetylene 
 C2H2,vinylidene CH2CO,ketene    O(CH)2O         HO(CO)2OH       C2H3,vinyl     
 CH3CN           CH3CO,acetyl    C2H4            C2H4O,ethylen-o CH3CHO,ethanal 
 CH3COOH         OHCH2COOH       C2H5            C2H6            CH3N2CH3       
 C2H5OH          CH3OCH3         CH3O2CH3        CCN             CNC            
 OCCN            C2N2            C2O             *C3             C3H3,1-propynl 
 C3H3,2-propynl  C3H4,allene     C3H4,propyne    C3H4,cyclo-     C3H5,allyl     
 C3H6,propylene  C3H6,cyclo-     C3H6O,propylox  C3H6O,acetone   C3H6O,propanal 
 C3H7,n-propyl   C3H7,i-propyl   C3H8            C3H8O,1propanol C3H8O,2propanol
 CNCOCN          C3O2            *C4             C4H2,butadiyne  C4H4,1,3-cyclo-
 C4H6,butadiene  C4H6,1butyne    C4H6,2butyne    C4H6,cyclo-     C4H8,1-butene  
 C4H8,cis2-buten C4H8,tr2-butene C4H8,isobutene  C4H8,cyclo-     (CH3COOH)2     
 C4H9,n-butyl    C4H9,i-butyl    C4H9,s-butyl    C4H9,t-butyl    C4H10,n-butane 
 C4H10,isobutane C4N2            *C5             C5H6,1,3cyclo-  C5H8,cyclo-    
 C5H10,1-pentene C5H10,cyclo-    C5H11,pentyl    C5H11,t-pentyl  C5H12,n-pentane
 C5H12,i-pentane CH3C(CH3)2CH3   C6H2            C6H5,phenyl     C6H5O,phenoxy  
 C6H6            C6H5OH,phenol   C6H10,cyclo-    C6H12,1-hexene  C6H12,cyclo-   
 C6H13,n-hexyl   C6H14,n-hexane  C7H7,benzyl     C7H8            C7H8O,cresol-mx
 C7H14,1-heptene C7H15,n-heptyl  C7H16,n-heptane C7H16,2-methylh C8H8,styrene   
 C8H10,ethylbenz C8H16,1-octene  C8H17,n-octyl   C8H18,n-octane  C8H18,isooctane
 C9H19,n-nonyl   C10H8,naphthale C10H21,n-decyl  C12H9,o-bipheny C12H10,biphenyl
 HCN             HCO             HCCN            HCCO            HNC            
 HNCO            HNO             HNO2            HNO3            HCHO,formaldehy
 HCOOH           H2O2            (HCOOH)2        *N              NCO            
 *NH             NH2             NH3             NH2OH           NO3            
 NCN             N2H2            NH2NO2          N2H4            N2O            
 N2O3            N2O4            N2O5            N3              N3H            
 O3              C(gr)           H2O(cr)         H2O(L)         

 NOTE. WEIGHT FRACTION OF FUEL IN TOTAL FUELS AND OF OXIDANT IN TOTAL OXIDANTS






 POINT ITN      T            C           H           N           O 

   1    2    2911.085     -17.810     -11.157     -12.625     -15.284

 Pinf/Pt = 1.740850
   2    4    2730.579     -18.450     -11.456     -12.779     -15.545

 Pinf/Pt = 1.742527
   2    2    2730.271     -18.451     -11.457     -12.779     -15.546






              THEORETICAL ROCKET PERFORMANCE ASSUMING EQUILIBRIUM

           COMPOSITION DURING EXPANSION FROM INFINITE AREA COMBUSTOR

 Pin =   507.6 PSIA
 CASE =                

             REACTANT                    WT FRACTION      ENERGY      TEMP
                                          (SEE NOTE)     KJ/KG-MOL      K  
 FUEL        C4H6,butadiene               1.0000000         0.000      0.000
 OXIDANT     N2O                          1.0000000         0.000      0.000

 O/F=    9.00000  %FUEL= 10.000000  R,EQ.RATIO= 0.994509  PHI,EQ.RATIO= 0.994509

                 CHAMBER   THROAT
 Pinf/P            1.0000   1.7425
 P, BAR            35.000   20.086
 T, K             2911.08  2730.27
 RHO, KG/CU M    4.1837 0 2.5821 0
 H, KJ/KG         0.00000  -448.13
 U, KJ/KG         -836.58 -1226.01
 G, KJ/KG        -26245.2 -25063.2
 S, KJ/(KG)(K)     9.0156   9.0156

 M, (1/n)          28.932   29.183
 (dLV/dLP)t      -1.01011 -1.00769
 (dLV/dLT)p        1.2331   1.1895
 Cp, KJ/(KG)(K)    3.1132   2.8846
 GAMMAs            1.1498   1.1522
 SON VEL,M/SEC      980.7    946.7
 MACH NUMBER        0.000    1.000

 TRANSPORT PROPERTIES (GASES ONLY)
   CONDUCTIVITY IN UNITS OF MILLIWATTS/(CM)(K)

 VISC,MILLIPOISE  0.91852  0.87960

  WITH EQUILIBRIUM REACTIONS

 Cp, KJ/(KG)(K)    3.1132   2.8846
 CONDUCTIVITY      4.6587   4.0208
 PRANDTL NUMBER    0.6138   0.6310

  WITH FROZEN REACTIONS

 Cp, KJ/(KG)(K)    1.5214   1.5152
 CONDUCTIVITY      1.9746   1.8713
 PRANDTL NUMBER    0.7077   0.7122

 PERFORMANCE PARAMETERS

 Ae/At                      1.0000
 CSTAR, M/SEC               1431.8
 CF                         0.6612
 Ivac, M/SEC                1768.4
 Isp, M/SEC                  946.7


 MOLE FRACTIONS

 *CO              0.04803  0.03619
 *CO2             0.16593  0.17961
 *H               0.00155  0.00096
 HO2              0.00002  0.00001
 *H2              0.00591  0.00451
 H2O              0.14727  0.15222
 *NO              0.01113  0.00782
 NO2              0.00001  0.00001
 *N2              0.58605  0.59283
 *O               0.00193  0.00113
 *OH              0.01299  0.00928
 *O2              0.01917  0.01542

  * THERMODYNAMIC PROPERTIES FITTED TO 20000.K

    PRODUCTS WHICH WERE CONSIDERED BUT WHOSE MOLE FRACTIONS
    WERE LESS THAN 5.000000E-06 FOR ALL ASSIGNED CONDITIONS

 *C              *CH             CH2             CH3             CH2OH          
 CH3O            CH4             CH3OH           CH3OOH          *CN            
 CNN             COOH            *C2             C2H             C2H2,acetylene 
 C2H2,vinylidene CH2CO,ketene    O(CH)2O         HO(CO)2OH       C2H3,vinyl     
 CH3CN           CH3CO,acetyl    C2H4            C2H4O,ethylen-o CH3CHO,ethanal 
 CH3COOH         OHCH2COOH       C2H5            C2H6            CH3N2CH3       
 C2H5OH          CH3OCH3         CH3O2CH3        CCN             CNC            
 OCCN            C2N2            C2O             *C3             C3H3,1-propynl 
 C3H3,2-propynl  C3H4,allene     C3H4,propyne    C3H4,cyclo-     C3H5,allyl     
 C3H6,propylene  C3H6,cyclo-     C3H6O,propylox  C3H6O,acetone   C3H6O,propanal 
 C3H7,n-propyl   C3H7,i-propyl   C3H8            C3H8O,1propanol C3H8O,2propanol
 CNCOCN          C3O2            *C4             C4H2,butadiyne  C4H4,1,3-cyclo-
 C4H6,butadiene  C4H6,1butyne    C4H6,2butyne    C4H6,cyclo-     C4H8,1-butene  
 C4H8,cis2-buten C4H8,tr2-butene C4H8,isobutene  C4H8,cyclo-     (CH3COOH)2     
 C4H9,n-butyl    C4H9,i-butyl    C4H9,s-butyl    C4H9,t-butyl    C4H10,n-butane 
 C4H10,isobutane C4N2            *C5             C5H6,1,3cyclo-  C5H8,cyclo-    
 C5H10,1-pentene C5H10,cyclo-    C5H11,pentyl    C5H11,t-pentyl  C5H12,n-pentane
 C5H12,i-pentane CH3C(CH3)2CH3   C6H2            C6H5,phenyl     C6H5O,phenoxy  
 C6H6            C6H5OH,phenol   C6H10,cyclo-    C6H12,1-hexene  C6H12,cyclo-   
 C6H13,n-hexyl   C6H14,n-hexane  C7H7,benzyl     C7H8            C7H8O,cresol-mx
 C7H14,1-heptene C7H15,n-heptyl  C7H16,n-heptane C7H16,2-methylh C8H8,styrene   
 C8H10,ethylbenz C8H16,1-octene  C8H17,n-octyl   C8H18,n-octane  C8H18,isooctane
 C9H19,n-nonyl   C10H8,naphthale C10H21,n-decyl  C12H9,o-bipheny C12H10,biphenyl
 HCN             HCO             HCCN            HCCO            HNC            
 HNCO            HNO             HNO2            HNO3            HCHO,formaldehy
 HCOOH           H2O2            (HCOOH)2        *N              NCO            
 *NH             NH2             NH3             NH2OH           NO3            
 NCN             N2H2            NH2NO2          N2H4            N2O            
 N2O3            N2O4            N2O5            N3              N3H            
 O3              C(gr)           H2O(cr)         H2O(L)         

 NOTE. WEIGHT FRACTION OF FUEL IN TOTAL FUELS AND OF OXIDANT IN TOTAL OXIDANTS






 POINT ITN      T            C           H           N           O 

   1    2    2912.848     -17.796     -11.146     -12.612     -15.273

 Pinf/Pt = 1.740962
   2    4    2731.932     -18.436     -11.446     -12.766     -15.535

 Pinf/Pt = 1.742653
   2    2    2731.620     -18.438     -11.447     -12.766     -15.535






              THEORETICAL ROCKET PERFORMANCE ASSUMING EQUILIBRIUM

           COMPOSITION DURING EXPANSION FROM INFINITE AREA COMBUSTOR

 Pin =   522.1 PSIA
 CASE =                

             REACTANT                    WT FRACTION      ENERGY      TEMP
                                          (SEE NOTE)     KJ/KG-MOL      K  
 FUEL        C4H6,butadiene               1.0000000         0.000      0.000
 OXIDANT     N2O                          1.0000000         0.000      0.000

 O/F=    9.00000  %FUEL= 10.000000  R,EQ.RATIO= 0.994509  PHI,EQ.RATIO= 0.994509

                 CHAMBER   THROAT
 Pinf/P            1.0000   1.7427
 P, BAR            36.000   20.658
 T, K             2912.85  2731.62
 RHO, KG/CU M    4.3012 0 2.6547 0
 H, KJ/KG         0.00000  -448.37
 U, KJ/KG         -836.97 -1226.54
 G, KJ/KG        -26237.5 -25053.5
 S, KJ/(KG)(K)     9.0075   9.0075

 M, (1/n)          28.936   29.186
 (dLV/dLP)t      -1.01007 -1.00765
 (dLV/dLT)p        1.2320   1.1886
 Cp, KJ/(KG)(K)    3.1051   2.8771
 GAMMAs            1.1499   1.1524
 SON VEL,M/SEC      981.1    947.0
 MACH NUMBER        0.000    1.000

 TRANSPORT PROPERTIES (GASES ONLY)
   CONDUCTIVITY IN UNITS OF MILLIWATTS/(CM)(K)

 VISC,MILLIPOISE  0.91893  0.87992

  WITH EQUILIBRIUM REACTIONS

 Cp, KJ/(KG)(K)    3.1051   2.8771
 CONDUCTIVITY      4.6443   4.0085
 PRANDTL NUMBER    0.6144   0.6316

  WITH FROZEN REACTIONS

 Cp, KJ/(KG)(K)    1.5215   1.5152
 CONDUCTIVITY      1.9756   1.8721
 PRANDTL NUMBER    0.7077   0.7122

 PERFORMANCE PARAMETERS

 Ae/At                      1.0000
 CSTAR, M/SEC               1432.0
 CF                         0.6613
 Ivac, M/SEC                1768.7
 Isp, M/SEC                  947.0


 MOLE FRACTIONS

 *CO              0.04785  0.03603
 *CO2             0.16614  0.17980
 *H               0.00153  0.00094
 HO2              0.00002  0.00001
 *H2              0.00588  0.00449
 H2O              0.14736  0.15229
 *NO              0.01113  0.00782
 NO2              0.00001  0.00001
 *N2              0.58613  0.59291
 *O               0.00191  0.00112
 *OH              0.01294  0.00923
 *O2              0.01908  0.01534

  * THERMODYNAMIC PROPERTIES FITTED TO 20000.K

    PRODUCTS WHICH WERE CONSIDERED BUT WHOSE MOLE FRACTIONS
    WERE LESS THAN 5.000000E-06 FOR ALL ASSIGNED CONDITIONS

 *C              *CH             CH2             CH3             CH2OH          
 CH3O            CH4             CH3OH           CH3OOH          *CN            
 CNN             COOH            *C2             C2H             C2H2,acetylene 
 C2H2,vinylidene CH2CO,ketene    O(CH)2O         HO(CO)2OH       C2H3,vinyl     
 CH3CN           CH3CO,acetyl    C2H4            C2H4O,ethylen-o CH3CHO,ethanal 
 CH3COOH         OHCH2COOH       C2H5            C2H6            CH3N2CH3       
 C2H5OH          CH3OCH3         CH3O2CH3        CCN             CNC            
 OCCN            C2N2            C2O             *C3             C3H3,1-propynl 
 C3H3,2-propynl  C3H4,allene     C3H4,propyne    C3H4,cyclo-     C3H5,allyl     
 C3H6,propylene  C3H6,cyclo-     C3H6O,propylox  C3H6O,acetone   C3H6O,propanal 
 C3H7,n-propyl   C3H7,i-propyl   C3H8            C3H8O,1propanol C3H8O,2propanol
 CNCOCN          C3O2            *C4             C4H2,butadiyne  C4H4,1,3-cyclo-
 C4H6,butadiene  C4H6,1butyne    C4H6,2butyne    C4H6,cyclo-     C4H8,1-butene  
 C4H8,cis2-buten C4H8,tr2-butene C4H8,isobutene  C4H8,cyclo-     (CH3COOH)2     
 C4H9,n-butyl    C4H9,i-butyl    C4H9,s-butyl    C4H9,t-butyl    C4H10,n-butane 
 C4H10,isobutane C4N2            *C5             C5H6,1,3cyclo-  C5H8,cyclo-    
 C5H10,1-pentene C5H10,cyclo-    C5H11,pentyl    C5H11,t-pentyl  C5H12,n-pentane
 C5H12,i-pentane CH3C(CH3)2CH3   C6H2            C6H5,phenyl     C6H5O,phenoxy  
 C6H6            C6H5OH,phenol   C6H10,cyclo-    C6H12,1-hexene  C6H12,cyclo-   
 C6H13,n-hexyl   C6H14,n-hexane  C7H7,benzyl     C7H8            C7H8O,cresol-mx
 C7H14,1-heptene C7H15,n-heptyl  C7H16,n-heptane C7H16,2-methylh C8H8,styrene   
 C8H10,ethylbenz C8H16,1-octene  C8H17,n-octyl   C8H18,n-octane  C8H18,isooctane
 C9H19,n-nonyl   C10H8,naphthale C10H21,n-decyl  C12H9,o-bipheny C12H10,biphenyl
 HCN             HCO             HCCN            HCCO            HNC            
 HNCO            HNO             HNO2            HNO3            HCHO,formaldehy
 HCOOH           H2O2            (HCOOH)2        *N              NCO            
 *NH             NH2             NH3             NH2OH           NO3            
 NCN             N2H2            NH2NO2          N2H4            N2O            
 N2O3            N2O4            N2O5            N3              N3H            
 O3              C(gr)           H2O(cr)         H2O(L)         

 NOTE. WEIGHT FRACTION OF FUEL IN TOTAL FUELS AND OF OXIDANT IN TOTAL OXIDANTS






 POINT ITN      T            C           H           N           O 

   1    2    2914.560     -17.782     -11.136     -12.599     -15.263

 Pinf/Pt = 1.741071
   2    4    2733.244     -18.423     -11.436     -12.753     -15.525

 Pinf/Pt = 1.742775
   2    2    2732.929     -18.424     -11.436     -12.753     -15.525






              THEORETICAL ROCKET PERFORMANCE ASSUMING EQUILIBRIUM

           COMPOSITION DURING EXPANSION FROM INFINITE AREA COMBUSTOR

 Pin =   536.6 PSIA
 CASE =                

             REACTANT                    WT FRACTION      ENERGY      TEMP
                                          (SEE NOTE)     KJ/KG-MOL      K  
 FUEL        C4H6,butadiene               1.0000000         0.000      0.000
 OXIDANT     N2O                          1.0000000         0.000      0.000

 O/F=    9.00000  %FUEL= 10.000000  R,EQ.RATIO= 0.994509  PHI,EQ.RATIO= 0.994509

                 CHAMBER   THROAT
 Pinf/P            1.0000   1.7428
 P, BAR            37.000   21.231
 T, K             2914.56  2732.93
 RHO, KG/CU M    4.4187 0 2.7273 0
 H, KJ/KG         0.00000  -448.61
 U, KJ/KG         -837.34 -1227.06
 G, KJ/KG        -26230.0 -25044.0
 S, KJ/(KG)(K)     8.9996   8.9996

 M, (1/n)          28.940   29.190
 (dLV/dLP)t      -1.01003 -1.00761
 (dLV/dLT)p        1.2310   1.1876
 Cp, KJ/(KG)(K)    3.0973   2.8698
 GAMMAs            1.1501   1.1526
 SON VEL,M/SEC      981.3    947.2
 MACH NUMBER        0.000    1.000

 TRANSPORT PROPERTIES (GASES ONLY)
   CONDUCTIVITY IN UNITS OF MILLIWATTS/(CM)(K)

 VISC,MILLIPOISE  0.91933  0.88023

  WITH EQUILIBRIUM REACTIONS

 Cp, KJ/(KG)(K)    3.0973   2.8698
 CONDUCTIVITY      4.6304   3.9965
 PRANDTL NUMBER    0.6149   0.6321

  WITH FROZEN REACTIONS

 Cp, KJ/(KG)(K)    1.5216   1.5153
 CONDUCTIVITY      1.9766   1.8729
 PRANDTL NUMBER    0.7077   0.7122

 PERFORMANCE PARAMETERS

 Ae/At                      1.0000
 CSTAR, M/SEC               1432.3
 CF                         0.6613
 Ivac, M/SEC                1769.0
 Isp, M/SEC                  947.2


 MOLE FRACTIONS

 *CO              0.04767  0.03587
 *CO2             0.16634  0.17999
 *H               0.00152  0.00093
 HO2              0.00002  0.00001
 *H2              0.00585  0.00446
 H2O              0.14744  0.15236
 *NO              0.01113  0.00782
 NO2              0.00001  0.00001
 *N2              0.58621  0.59298
 *O               0.00190  0.00111
 *OH              0.01289  0.00919
 *O2              0.01900  0.01526

  * THERMODYNAMIC PROPERTIES FITTED TO 20000.K

    PRODUCTS WHICH WERE CONSIDERED BUT WHOSE MOLE FRACTIONS
    WERE LESS THAN 5.000000E-06 FOR ALL ASSIGNED CONDITIONS

 *C              *CH             CH2             CH3             CH2OH          
 CH3O            CH4             CH3OH           CH3OOH          *CN            
 CNN             COOH            *C2             C2H             C2H2,acetylene 
 C2H2,vinylidene CH2CO,ketene    O(CH)2O         HO(CO)2OH       C2H3,vinyl     
 CH3CN           CH3CO,acetyl    C2H4            C2H4O,ethylen-o CH3CHO,ethanal 
 CH3COOH         OHCH2COOH       C2H5            C2H6            CH3N2CH3       
 C2H5OH          CH3OCH3         CH3O2CH3        CCN             CNC            
 OCCN            C2N2            C2O             *C3             C3H3,1-propynl 
 C3H3,2-propynl  C3H4,allene     C3H4,propyne    C3H4,cyclo-     C3H5,allyl     
 C3H6,propylene  C3H6,cyclo-     C3H6O,propylox  C3H6O,acetone   C3H6O,propanal 
 C3H7,n-propyl   C3H7,i-propyl   C3H8            C3H8O,1propanol C3H8O,2propanol
 CNCOCN          C3O2            *C4             C4H2,butadiyne  C4H4,1,3-cyclo-
 C4H6,butadiene  C4H6,1butyne    C4H6,2butyne    C4H6,cyclo-     C4H8,1-butene  
 C4H8,cis2-buten C4H8,tr2-butene C4H8,isobutene  C4H8,cyclo-     (CH3COOH)2     
 C4H9,n-butyl    C4H9,i-butyl    C4H9,s-butyl    C4H9,t-butyl    C4H10,n-butane 
 C4H10,isobutane C4N2            *C5             C5H6,1,3cyclo-  C5H8,cyclo-    
 C5H10,1-pentene C5H10,cyclo-    C5H11,pentyl    C5H11,t-pentyl  C5H12,n-pentane
 C5H12,i-pentane CH3C(CH3)2CH3   C6H2            C6H5,phenyl     C6H5O,phenoxy  
 C6H6            C6H5OH,phenol   C6H10,cyclo-    C6H12,1-hexene  C6H12,cyclo-   
 C6H13,n-hexyl   C6H14,n-hexane  C7H7,benzyl     C7H8            C7H8O,cresol-mx
 C7H14,1-heptene C7H15,n-heptyl  C7H16,n-heptane C7H16,2-methylh C8H8,styrene   
 C8H10,ethylbenz C8H16,1-octene  C8H17,n-octyl   C8H18,n-octane  C8H18,isooctane
 C9H19,n-nonyl   C10H8,naphthale C10H21,n-decyl  C12H9,o-bipheny C12H10,biphenyl
 HCN             HCO             HCCN            HCCO            HNC            
 HNCO            HNO             HNO2            HNO3            HCHO,formaldehy
 HCOOH           H2O2            (HCOOH)2        *N              NCO            
 *NH             NH2             NH3             NH2OH           NO3            
 NCN             N2H2            NH2NO2          N2H4            N2O            
 N2O3            N2O4            N2O5            N3              N3H            
 O3              C(gr)           H2O(cr)         H2O(L)         

 NOTE. WEIGHT FRACTION OF FUEL IN TOTAL FUELS AND OF OXIDANT IN TOTAL OXIDANTS



