
 *******************************************************************************

         NASA-GLENN CHEMICAL EQUILIBRIUM PROGRAM CEA2, MAY 21, 2004
                   BY  BONNIE MCBRIDE AND SANFORD GORDON
      REFS: NASA RP-1311, PART I, 1994 AND NASA RP-1311, PART II, 1996

 *******************************************************************************



 problem o/f=1,1.5,2,3,4,5,6,7,8,8.5,9,10.5,11,12,13,14,
     rocket equilibrium
   p,bar=30.0,31,31.15,31.2,31.3
 react
     fuel=C4H6,butadiene wt=100
     oxid=N2O wt=100
 output  transport
     plot o/f %f p t rho h g m mw cp gam pip mach aeat cf ivac isp
 end

 OPTIONS: TP=F  HP=F  SP=F  TV=F  UV=F  SV=F  DETN=F  SHOCK=F  REFL=F  INCD=F
 RKT=T  FROZ=F  EQL=T  IONS=F  SIUNIT=T  DEBUGF=F  SHKDBG=F  DETDBG=F  TRNSPT=T

 TRACE= 0.00E+00  S/R= 0.000000E+00  H/R= 0.000000E+00  U/R= 0.000000E+00

 Pc,BAR =    30.000000    31.000000    31.150000    31.200000    31.300000

 Pc/P =

 SUBSONIC AREA RATIOS =

 SUPERSONIC AREA RATIOS =

 NFZ=  1  Mdot/Ac= 0.000000E+00  Ac/At= 0.000000E+00

    REACTANT          WT.FRAC   (ENERGY/R),K   TEMP,K  DENSITY
        EXPLODED FORMULA
 F: C4H6,butadiene   1.000000   0.000000E+00     0.00  0.0000
          C  4.00000  H  6.00000
 O: N2O              1.000000   0.000000E+00     0.00  0.0000
          N  2.00000  O  1.00000

  SPECIES BEING CONSIDERED IN THIS SYSTEM
 (CONDENSED PHASE MAY HAVE NAME LISTED SEVERAL TIMES)
  LAST thermo.inp UPDATE:    9/09/04

  g 7/97  *C               tpis79  *CH              g 4/02  CH2            
  g 4/02  CH3              g11/00  CH2OH            g 7/00  CH3O           
  g 8/99  CH4              g 7/00  CH3OH            srd 01  CH3OOH         
  g 8/99  *CN              g12/99  CNN              tpis79  *CO            
  g 9/99  *CO2             tpis91  COOH             tpis91  *C2            
  g 6/01  C2H              g 1/91  C2H2,acetylene   g 5/01  C2H2,vinylidene
  g 4/02  CH2CO,ketene     g 3/02  O(CH)2O          srd 01  HO(CO)2OH      
  g 7/01  C2H3,vinyl       g 9/00  CH3CN            g 6/96  CH3CO,acetyl   
  g 1/00  C2H4             g 8/88  C2H4O,ethylen-o  g 8/88  CH3CHO,ethanal 
  g 6/00  CH3COOH          srd 01  OHCH2COOH        g 7/00  C2H5           
  g 7/00  C2H6             g 8/88  CH3N2CH3         g 8/88  C2H5OH         
  g 7/00  CH3OCH3          srd 01  CH3O2CH3         g 7/00  CCN            
  tpis91  CNC              srd 01  OCCN             tpis79  C2N2           
  g 8/00  C2O              tpis79  *C3              n 4/98  C3H3,1-propynl 
  n 4/98  C3H3,2-propynl   g 2/00  C3H4,allene      g 1/00  C3H4,propyne   
  g 5/90  C3H4,cyclo-      g 3/01  C3H5,allyl       g 2/00  C3H6,propylene 
  g 1/00  C3H6,cyclo-      g 6/01  C3H6O,propylox   g 6/97  C3H6O,acetone  
  g 1/02  C3H6O,propanal   g 7/01  C3H7,n-propyl    g 9/85  C3H7,i-propyl  
  g 2/00  C3H8             g 2/00  C3H8O,1propanol  g 2/00  C3H8O,2propanol
  srd 01  CNCOCN           g 7/88  C3O2             g tpis  *C4            
  g 7/01  C4H2,butadiyne   g 8/00  C4H4,1,3-cyclo-  n10/92  C4H6,butadiene 
  n10/93  C4H6,1butyne     n10/93  C4H6,2butyne     g 8/00  C4H6,cyclo-    
  n 4/88  C4H8,1-butene    n 4/88  C4H8,cis2-buten  n 4/88  C4H8,tr2-butene
  n 4/88  C4H8,isobutene   g 8/00  C4H8,cyclo-      g10/00  (CH3COOH)2     
  n10/84  C4H9,n-butyl     n10/84  C4H9,i-butyl     g 1/93  C4H9,s-butyl   
  g 1/93  C4H9,t-butyl     g12/00  C4H10,n-butane   g 8/00  C4H10,isobutane
  g 6/01  C4N2             g 8/00  *C5              g 5/90  C5H6,1,3cyclo- 
  g 1/93  C5H8,cyclo-      n 4/87  C5H10,1-pentene  g 2/01  C5H10,cyclo-   
  n10/84  C5H11,pentyl     g 1/93  C5H11,t-pentyl   n10/85  C5H12,n-pentane
  n10/85  C5H12,i-pentane  n10/85  CH3C(CH3)2CH3    g 2/93  C6H2           
  g11/00  C6H5,phenyl      g 8/00  C6H5O,phenoxy    g 8/00  C6H6           
  g 8/00  C6H5OH,phenol    g 1/93  C6H10,cyclo-     n 4/87  C6H12,1-hexene 
  g 6/90  C6H12,cyclo-     n10/83  C6H13,n-hexyl    g 6/01  C6H14,n-hexane 
  g 7/01  C7H7,benzyl      g 1/93  C7H8             g12/00  C7H8O,cresol-mx
  n 4/87  C7H14,1-heptene  n10/83  C7H15,n-heptyl   n10/85  C7H16,n-heptane
  n10/85  C7H16,2-methylh  n 4/89  C8H8,styrene     n10/86  C8H10,ethylbenz
  n 4/87  C8H16,1-octene   n10/83  C8H17,n-octyl    n 4/85  C8H18,n-octane 
  n 4/85  C8H18,isooctane  n10/83  C9H19,n-nonyl    g 3/01  C10H8,naphthale
  n10/83  C10H21,n-decyl   g 8/00  C12H9,o-bipheny  g 8/00  C12H10,biphenyl
  g 6/97  *H               g 6/01  HCN              g 1/01  HCO            
  tpis89  HCCN             g 6/01  HCCO             g 6/01  HNC            
  g 7/00  HNCO             g10/01  HNO              tpis89  HNO2           
  g 5/99  HNO3             g 4/02  HO2              tpis78  *H2            
  g 5/01  HCHO,formaldehy  g 6/01  HCOOH            g 8/89  H2O            
  g 6/99  H2O2             g 6/01  (HCOOH)2         g 5/97  *N             
  g 6/01  NCO              g 4/99  *NH              g 3/01  NH2            
  tpis89  NH3              tpis89  NH2OH            tpis89  *NO            
  g 4/99  NO2              j12/64  NO3              tpis78  *N2            
  g 6/01  NCN              g 5/99  N2H2             tpis89  NH2NO2         
  g 4/99  N2H4             g 4/99  N2O              g 4/99  N2O3           
  tpis89  N2O4             g 4/99  N2O5             tpis89  N3             
  g 4/99  N3H              g 5/97  *O               g 4/02  *OH            
  tpis89  *O2              g 8/01  O3               n 4/83  C(gr)          
  n 4/83  C(gr)            n 4/83  C(gr)            g11/99  H2O(cr)        
  g 8/01  H2O(L)           g 8/01  H2O(L)         

 SPECIES WITH TRANSPORT PROPERTIES

        PURE SPECIES

  C                 CH4               CH3OH             CO              
  CO2               C2H2,acetylene  
  C2H4              C2H6              C2H5OH            C2N2            
  H                 HCN             
  H2                H2O               N                 NH3             
  NO                NO2             
  N2                N2O               N2O4              O               
  OH                O2              

     BINARY INTERACTIONS

     C               O               
     CH4             O2              
     CO              CO2             
     CO              N2              
     CO              O2              
     CO2             H2              
     CO2             H2O             
     CO2             N2              
     CO2             O2              
     H               H2              
     H               N               
     H               N2              
     H               O               
     H2              H2O             
     H2              N2              
     H2              O2              
     H2O             N2              
     H2O             O2              
     N               NO              
     N               N2              
     N               O               
     N               O2              
     NO              O               
     N2              O               
     N2              O2              
     O               O2              


 O/F =   1.000000

                       EFFECTIVE FUEL     EFFECTIVE OXIDANT        MIXTURE
 ENTHALPY                  h(2)/R              h(1)/R               h0/R
 (KG-MOL)(K)/KG        0.00000000E+00      0.00000000E+00      0.00000000E+00

 KG-FORM.WT./KG             bi(2)               bi(1)               b0i
  *C                   0.73950221E-01      0.00000000E+00      0.36975111E-01
  *H                   0.11092533E+00      0.00000000E+00      0.55462666E-01
  *N                   0.00000000E+00      0.45441326E-01      0.22720663E-01
  *O                   0.00000000E+00      0.22720663E-01      0.11360332E-01

 POINT ITN      T            C           H           N           O 

   1   20    1215.423       2.621      -8.560     -11.579     -37.461

 ADD  C(gr)          
   1    8    1237.368      -1.851      -7.744     -11.707     -33.355

 Pinf/Pt = 1.746280
   2    4    1162.642      -1.749      -7.940     -11.892     -34.613

 Pinf/Pt = 1.740277
   2    2    1163.074      -1.750      -7.939     -11.891     -34.605






              THEORETICAL ROCKET PERFORMANCE ASSUMING EQUILIBRIUM

           COMPOSITION DURING EXPANSION FROM INFINITE AREA COMBUSTOR

 Pin =   435.1 PSIA
 CASE =                

             REACTANT                    WT FRACTION      ENERGY      TEMP
                                          (SEE NOTE)     KJ/KG-MOL      K  
 FUEL        C4H6,butadiene               1.0000000         0.000      0.000
 OXIDANT     N2O                          1.0000000         0.000      0.000

 O/F=    1.00000  %FUEL= 50.000000  R,EQ.RATIO= 8.950580  PHI,EQ.RATIO= 8.950580

                 CHAMBER   THROAT
 Pinf/P            1.0000   1.7403
 P, BAR            30.000   17.239
 T, K             1237.37  1163.07
 RHO, KG/CU M    6.4961 0 4.0195 0
 H, KJ/KG         0.00000  -246.55
 U, KJ/KG         -461.82  -675.43
 G, KJ/KG        -11757.5 -11298.1
 S, KJ/(KG)(K)     9.5020   9.5020

 M, (1/n)          22.277   22.548
 MW, MOL WT        14.321   14.303
 (dLV/dLP)t      -1.07415 -1.07778
 (dLV/dLT)p        1.8199   1.9307
 Cp, KJ/(KG)(K)    5.8571   6.6064
 GAMMAs            1.1586   1.1498
 SON VEL,M/SEC      731.5    702.2
 MACH NUMBER        0.000    1.000

 TRANSPORT PROPERTIES (GASES ONLY)
   CONDUCTIVITY IN UNITS OF MILLIWATTS/(CM)(K)

 VISC,MILLIPOISE  0.44907  0.43230

  WITH EQUILIBRIUM REACTIONS

 Cp, KJ/(KG)(K)    7.4237   8.4225
 CONDUCTIVITY      5.4174   5.8280
 PRANDTL NUMBER    0.6154   0.6247

  WITH FROZEN REACTIONS

 Cp, KJ/(KG)(K)    2.3644   2.3401
 CONDUCTIVITY      2.0018   1.9025
 PRANDTL NUMBER    0.5304   0.5317

 PERFORMANCE PARAMETERS

 Ae/At                      1.0000
 CSTAR, M/SEC               1062.9
 CF                         0.6607
 Ivac, M/SEC                1313.0
 Isp, M/SEC                  702.2


 MOLE FRACTIONS

 CH4              0.04442  0.04379
 *CO              0.12025  0.10894
 *CO2             0.00766  0.01043
 C2H4             0.00001  0.00000
 C2H6             0.00001  0.00000
 HCN              0.00003  0.00001
 *H2              0.28046  0.27581
 H2O              0.02712  0.03268
 NH3              0.00045  0.00036
 *N2              0.16245  0.16230
 C(gr)            0.35714  0.36567

  * THERMODYNAMIC PROPERTIES FITTED TO 20000.K

    PRODUCTS WHICH WERE CONSIDERED BUT WHOSE MOLE FRACTIONS
    WERE LESS THAN 5.000000E-06 FOR ALL ASSIGNED CONDITIONS

 *C              *CH             CH2             CH3             CH2OH          
 CH3O            CH3OH           CH3OOH          *CN             CNN            
 COOH            *C2             C2H             C2H2,acetylene  C2H2,vinylidene
 CH2CO,ketene    O(CH)2O         HO(CO)2OH       C2H3,vinyl      CH3CN          
 CH3CO,acetyl    C2H4O,ethylen-o CH3CHO,ethanal  CH3COOH         OHCH2COOH      
 C2H5            CH3N2CH3        C2H5OH          CH3OCH3         CH3O2CH3       
 CCN             CNC             OCCN            C2N2            C2O            
 *C3             C3H3,1-propynl  C3H3,2-propynl  C3H4,allene     C3H4,propyne   
 C3H4,cyclo-     C3H5,allyl      C3H6,propylene  C3H6,cyclo-     C3H6O,propylox 
 C3H6O,acetone   C3H6O,propanal  C3H7,n-propyl   C3H7,i-propyl   C3H8           
 C3H8O,1propanol C3H8O,2propanol CNCOCN          C3O2            *C4            
 C4H2,butadiyne  C4H4,1,3-cyclo- C4H6,butadiene  C4H6,1butyne    C4H6,2butyne   
 C4H6,cyclo-     C4H8,1-butene   C4H8,cis2-buten C4H8,tr2-butene C4H8,isobutene 
 C4H8,cyclo-     (CH3COOH)2      C4H9,n-butyl    C4H9,i-butyl    C4H9,s-butyl   
 C4H9,t-butyl    C4H10,n-butane  C4H10,isobutane C4N2            *C5            
 C5H6,1,3cyclo-  C5H8,cyclo-     C5H10,1-pentene C5H10,cyclo-    C5H11,pentyl   
 C5H11,t-pentyl  C5H12,n-pentane C5H12,i-pentane CH3C(CH3)2CH3   C6H2           
 C6H5,phenyl     C6H5O,phenoxy   C6H6            C6H5OH,phenol   C6H10,cyclo-   
 C6H12,1-hexene  C6H12,cyclo-    C6H13,n-hexyl   C6H14,n-hexane  C7H7,benzyl    
 C7H8            C7H8O,cresol-mx C7H14,1-heptene C7H15,n-heptyl  C7H16,n-heptane
 C7H16,2-methylh C8H8,styrene    C8H10,ethylbenz C8H16,1-octene  C8H17,n-octyl  
 C8H18,n-octane  C8H18,isooctane C9H19,n-nonyl   C10H8,naphthale C10H21,n-decyl 
 C12H9,o-bipheny C12H10,biphenyl *H              HCO             HCCN           
 HCCO            HNC             HNCO            HNO             HNO2           
 HNO3            HO2             HCHO,formaldehy HCOOH           H2O2           
 (HCOOH)2        *N              NCO             *NH             NH2            
 NH2OH           *NO             NO2             NO3             NCN            
 N2H2            NH2NO2          N2H4            N2O             N2O3           
 N2O4            N2O5            N3              N3H             *O             
 *OH             *O2             O3              H2O(cr)         H2O(L)         

 NOTE. WEIGHT FRACTION OF FUEL IN TOTAL FUELS AND OF OXIDANT IN TOTAL OXIDANTS






 POINT ITN      T            C           H           N           O 

   1    2    1239.492      -1.853      -7.731     -11.693     -33.306

 Pinf/Pt = 1.746247
   2    4    1164.602      -1.752      -7.928     -11.878     -34.563

 Pinf/Pt = 1.740285
   2    2    1165.032      -1.753      -7.926     -11.877     -34.555






              THEORETICAL ROCKET PERFORMANCE ASSUMING EQUILIBRIUM

           COMPOSITION DURING EXPANSION FROM INFINITE AREA COMBUSTOR

 Pin =   449.6 PSIA
 CASE =                

             REACTANT                    WT FRACTION      ENERGY      TEMP
                                          (SEE NOTE)     KJ/KG-MOL      K  
 FUEL        C4H6,butadiene               1.0000000         0.000      0.000
 OXIDANT     N2O                          1.0000000         0.000      0.000

 O/F=    1.00000  %FUEL= 50.000000  R,EQ.RATIO= 8.950580  PHI,EQ.RATIO= 8.950580

                 CHAMBER   THROAT
 Pinf/P            1.0000   1.7403
 P, BAR            31.000   17.813
 T, K             1239.49  1165.03
 RHO, KG/CU M    6.7080 0 4.1506 0
 H, KJ/KG         0.00000  -246.73
 U, KJ/KG         -462.13  -675.90
 G, KJ/KG        -11762.5 -11302.6
 S, KJ/(KG)(K)     9.4898   9.4898

 M, (1/n)          22.300   22.570
 MW, MOL WT        14.335   14.316
 (dLV/dLP)t      -1.07447 -1.07805
 (dLV/dLT)p        1.8217   1.9320
 Cp, KJ/(KG)(K)    5.8549   6.5998
 GAMMAs            1.1586   1.1498
 SON VEL,M/SEC      731.7    702.5
 MACH NUMBER        0.000    1.000

 TRANSPORT PROPERTIES (GASES ONLY)
   CONDUCTIVITY IN UNITS OF MILLIWATTS/(CM)(K)

 VISC,MILLIPOISE  0.44956  0.43276

  WITH EQUILIBRIUM REACTIONS

 Cp, KJ/(KG)(K)    7.4200   8.4146
 CONDUCTIVITY      5.4248   5.8344
 PRANDTL NUMBER    0.6149   0.6241

  WITH FROZEN REACTIONS

 Cp, KJ/(KG)(K)    2.3651   2.3407
 CONDUCTIVITY      2.0020   1.9026
 PRANDTL NUMBER    0.5311   0.5324

 PERFORMANCE PARAMETERS

 Ae/At                      1.0000
 CSTAR, M/SEC               1063.2
 CF                         0.6607
 Ivac, M/SEC                1313.4
 Isp, M/SEC                  702.5


 MOLE FRACTIONS

 CH4              0.04494  0.04429
 *CO              0.12017  0.10886
 *CO2             0.00769  0.01046
 C2H4             0.00001  0.00000
 C2H6             0.00001  0.00000
 HCN              0.00003  0.00001
 *H2              0.27961  0.27499
 H2O              0.02730  0.03287
 NH3              0.00046  0.00037
 *N2              0.16261  0.16244
 C(gr)            0.35718  0.36571

  * THERMODYNAMIC PROPERTIES FITTED TO 20000.K

    PRODUCTS WHICH WERE CONSIDERED BUT WHOSE MOLE FRACTIONS
    WERE LESS THAN 5.000000E-06 FOR ALL ASSIGNED CONDITIONS

 *C              *CH             CH2             CH3             CH2OH          
 CH3O            CH3OH           CH3OOH          *CN             CNN            
 COOH            *C2             C2H             C2H2,acetylene  C2H2,vinylidene
 CH2CO,ketene    O(CH)2O         HO(CO)2OH       C2H3,vinyl      CH3CN          
 CH3CO,acetyl    C2H4O,ethylen-o CH3CHO,ethanal  CH3COOH         OHCH2COOH      
 C2H5            CH3N2CH3        C2H5OH          CH3OCH3         CH3O2CH3       
 CCN             CNC             OCCN            C2N2            C2O            
 *C3             C3H3,1-propynl  C3H3,2-propynl  C3H4,allene     C3H4,propyne   
 C3H4,cyclo-     C3H5,allyl      C3H6,propylene  C3H6,cyclo-     C3H6O,propylox 
 C3H6O,acetone   C3H6O,propanal  C3H7,n-propyl   C3H7,i-propyl   C3H8           
 C3H8O,1propanol C3H8O,2propanol CNCOCN          C3O2            *C4            
 C4H2,butadiyne  C4H4,1,3-cyclo- C4H6,butadiene  C4H6,1butyne    C4H6,2butyne   
 C4H6,cyclo-     C4H8,1-butene   C4H8,cis2-buten C4H8,tr2-butene C4H8,isobutene 
 C4H8,cyclo-     (CH3COOH)2      C4H9,n-butyl    C4H9,i-butyl    C4H9,s-butyl   
 C4H9,t-butyl    C4H10,n-butane  C4H10,isobutane C4N2            *C5            
 C5H6,1,3cyclo-  C5H8,cyclo-     C5H10,1-pentene C5H10,cyclo-    C5H11,pentyl   
 C5H11,t-pentyl  C5H12,n-pentane C5H12,i-pentane CH3C(CH3)2CH3   C6H2           
 C6H5,phenyl     C6H5O,phenoxy   C6H6            C6H5OH,phenol   C6H10,cyclo-   
 C6H12,1-hexene  C6H12,cyclo-    C6H13,n-hexyl   C6H14,n-hexane  C7H7,benzyl    
 C7H8            C7H8O,cresol-mx C7H14,1-heptene C7H15,n-heptyl  C7H16,n-heptane
 C7H16,2-methylh C8H8,styrene    C8H10,ethylbenz C8H16,1-octene  C8H17,n-octyl  
 C8H18,n-octane  C8H18,isooctane C9H19,n-nonyl   C10H8,naphthale C10H21,n-decyl 
 C12H9,o-bipheny C12H10,biphenyl *H              HCO             HCCN           
 HCCO            HNC             HNCO            HNO             HNO2           
 HNO3            HO2             HCHO,formaldehy HCOOH           H2O2           
 (HCOOH)2        *N              NCO             *NH             NH2            
 NH2OH           *NO             NO2             NO3             NCN            
 N2H2            NH2NO2          N2H4            N2O             N2O3           
 N2O4            N2O5            N3              N3H             *O             
 *OH             *O2             O3              H2O(cr)         H2O(L)         

 NOTE. WEIGHT FRACTION OF FUEL IN TOTAL FUELS AND OF OXIDANT IN TOTAL OXIDANTS






 POINT ITN      T            C           H           N           O 

   1    2    1239.805      -1.854      -7.729     -11.691     -33.299

 Pinf/Pt = 1.746242
   2    4    1164.891      -1.752      -7.926     -11.876     -34.556

 Pinf/Pt = 1.740286
   2    2    1165.320      -1.753      -7.925     -11.874     -34.548






              THEORETICAL ROCKET PERFORMANCE ASSUMING EQUILIBRIUM

           COMPOSITION DURING EXPANSION FROM INFINITE AREA COMBUSTOR

 Pin =   451.8 PSIA
 CASE =                

             REACTANT                    WT FRACTION      ENERGY      TEMP
                                          (SEE NOTE)     KJ/KG-MOL      K  
 FUEL        C4H6,butadiene               1.0000000         0.000      0.000
 OXIDANT     N2O                          1.0000000         0.000      0.000

 O/F=    1.00000  %FUEL= 50.000000  R,EQ.RATIO= 8.950580  PHI,EQ.RATIO= 8.950580

                 CHAMBER   THROAT
 Pinf/P            1.0000   1.7403
 P, BAR            31.150   17.899
 T, K             1239.80  1165.32
 RHO, KG/CU M    6.7398 0 4.1702 0
 H, KJ/KG         0.00000  -246.75
 U, KJ/KG         -462.18  -675.97
 G, KJ/KG        -11763.3 -11303.3
 S, KJ/(KG)(K)     9.4880   9.4880

 M, (1/n)          22.304   22.574
 MW, MOL WT        14.337   14.318
 (dLV/dLP)t      -1.07451 -1.07809
 (dLV/dLT)p        1.8220   1.9322
 Cp, KJ/(KG)(K)    5.8545   6.5988
 GAMMAs            1.1586   1.1498
 SON VEL,M/SEC      731.8    702.5
 MACH NUMBER        0.000    1.000

 TRANSPORT PROPERTIES (GASES ONLY)
   CONDUCTIVITY IN UNITS OF MILLIWATTS/(CM)(K)

 VISC,MILLIPOISE  0.44963  0.43283

  WITH EQUILIBRIUM REACTIONS

 Cp, KJ/(KG)(K)    7.4194   8.4134
 CONDUCTIVITY      5.4258   5.8353
 PRANDTL NUMBER    0.6148   0.6241

  WITH FROZEN REACTIONS

 Cp, KJ/(KG)(K)    2.3652   2.3408
 CONDUCTIVITY      2.0020   1.9026
 PRANDTL NUMBER    0.5312   0.5325

 PERFORMANCE PARAMETERS

 Ae/At                      1.0000
 CSTAR, M/SEC               1063.3
 CF                         0.6607
 Ivac, M/SEC                1313.5
 Isp, M/SEC                  702.5


 MOLE FRACTIONS

 CH4              0.04502  0.04436
 *CO              0.12016  0.10885
 *CO2             0.00770  0.01046
 C2H4             0.00001  0.00000
 C2H6             0.00001  0.00000
 HCN              0.00003  0.00001
 *H2              0.27948  0.27486
 H2O              0.02732  0.03289
 NH3              0.00046  0.00037
 *N2              0.16263  0.16247
 C(gr)            0.35719  0.36572

  * THERMODYNAMIC PROPERTIES FITTED TO 20000.K

    PRODUCTS WHICH WERE CONSIDERED BUT WHOSE MOLE FRACTIONS
    WERE LESS THAN 5.000000E-06 FOR ALL ASSIGNED CONDITIONS

 *C              *CH             CH2             CH3             CH2OH          
 CH3O            CH3OH           CH3OOH          *CN             CNN            
 COOH            *C2             C2H             C2H2,acetylene  C2H2,vinylidene
 CH2CO,ketene    O(CH)2O         HO(CO)2OH       C2H3,vinyl      CH3CN          
 CH3CO,acetyl    C2H4O,ethylen-o CH3CHO,ethanal  CH3COOH         OHCH2COOH      
 C2H5            CH3N2CH3        C2H5OH          CH3OCH3         CH3O2CH3       
 CCN             CNC             OCCN            C2N2            C2O            
 *C3             C3H3,1-propynl  C3H3,2-propynl  C3H4,allene     C3H4,propyne   
 C3H4,cyclo-     C3H5,allyl      C3H6,propylene  C3H6,cyclo-     C3H6O,propylox 
 C3H6O,acetone   C3H6O,propanal  C3H7,n-propyl   C3H7,i-propyl   C3H8           
 C3H8O,1propanol C3H8O,2propanol CNCOCN          C3O2            *C4            
 C4H2,butadiyne  C4H4,1,3-cyclo- C4H6,butadiene  C4H6,1butyne    C4H6,2butyne   
 C4H6,cyclo-     C4H8,1-butene   C4H8,cis2-buten C4H8,tr2-butene C4H8,isobutene 
 C4H8,cyclo-     (CH3COOH)2      C4H9,n-butyl    C4H9,i-butyl    C4H9,s-butyl   
 C4H9,t-butyl    C4H10,n-butane  C4H10,isobutane C4N2            *C5            
 C5H6,1,3cyclo-  C5H8,cyclo-     C5H10,1-pentene C5H10,cyclo-    C5H11,pentyl   
 C5H11,t-pentyl  C5H12,n-pentane C5H12,i-pentane CH3C(CH3)2CH3   C6H2           
 C6H5,phenyl     C6H5O,phenoxy   C6H6            C6H5OH,phenol   C6H10,cyclo-   
 C6H12,1-hexene  C6H12,cyclo-    C6H13,n-hexyl   C6H14,n-hexane  C7H7,benzyl    
 C7H8            C7H8O,cresol-mx C7H14,1-heptene C7H15,n-heptyl  C7H16,n-heptane
 C7H16,2-methylh C8H8,styrene    C8H10,ethylbenz C8H16,1-octene  C8H17,n-octyl  
 C8H18,n-octane  C8H18,isooctane C9H19,n-nonyl   C10H8,naphthale C10H21,n-decyl 
 C12H9,o-bipheny C12H10,biphenyl *H              HCO             HCCN           
 HCCO            HNC             HNCO            HNO             HNO2           
 HNO3            HO2             HCHO,formaldehy HCOOH           H2O2           
 (HCOOH)2        *N              NCO             *NH             NH2            
 NH2OH           *NO             NO2             NO3             NCN            
 N2H2            NH2NO2          N2H4            N2O             N2O3           
 N2O4            N2O5            N3              N3H             *O             
 *OH             *O2             O3              H2O(cr)         H2O(L)         

 NOTE. WEIGHT FRACTION OF FUEL IN TOTAL FUELS AND OF OXIDANT IN TOTAL OXIDANTS






 POINT ITN      T            C           H           N           O 

   1    2    1239.909      -1.854      -7.728     -11.690     -33.297

 Pinf/Pt = 1.746241
   2    4    1164.987      -1.752      -7.925     -11.875     -34.553

 Pinf/Pt = 1.740286
   2    2    1165.416      -1.753      -7.924     -11.874     -34.546






              THEORETICAL ROCKET PERFORMANCE ASSUMING EQUILIBRIUM

           COMPOSITION DURING EXPANSION FROM INFINITE AREA COMBUSTOR

 Pin =   452.5 PSIA
 CASE =                

             REACTANT                    WT FRACTION      ENERGY      TEMP
                                          (SEE NOTE)     KJ/KG-MOL      K  
 FUEL        C4H6,butadiene               1.0000000         0.000      0.000
 OXIDANT     N2O                          1.0000000         0.000      0.000

 O/F=    1.00000  %FUEL= 50.000000  R,EQ.RATIO= 8.950580  PHI,EQ.RATIO= 8.950580

                 CHAMBER   THROAT
 Pinf/P            1.0000   1.7403
 P, BAR            31.200   17.928
 T, K             1239.91  1165.42
 RHO, KG/CU M    6.7504 0 4.1768 0
 H, KJ/KG         0.00000  -246.76
 U, KJ/KG         -462.20  -675.99
 G, KJ/KG        -11763.5 -11303.5
 S, KJ/(KG)(K)     9.4874   9.4874

 M, (1/n)          22.305   22.575
 MW, MOL WT        14.338   14.319
 (dLV/dLP)t      -1.07453 -1.07811
 (dLV/dLT)p        1.8221   1.9323
 Cp, KJ/(KG)(K)    5.8544   6.5985
 GAMMAs            1.1586   1.1498
 SON VEL,M/SEC      731.8    702.5
 MACH NUMBER        0.000    1.000

 TRANSPORT PROPERTIES (GASES ONLY)
   CONDUCTIVITY IN UNITS OF MILLIWATTS/(CM)(K)

 VISC,MILLIPOISE  0.44965  0.43285

  WITH EQUILIBRIUM REACTIONS

 Cp, KJ/(KG)(K)    7.4192   8.4130
 CONDUCTIVITY      5.4262   5.8356
 PRANDTL NUMBER    0.6148   0.6240

  WITH FROZEN REACTIONS

 Cp, KJ/(KG)(K)    2.3652   2.3408
 CONDUCTIVITY      2.0020   1.9026
 PRANDTL NUMBER    0.5312   0.5325

 PERFORMANCE PARAMETERS

 Ae/At                      1.0000
 CSTAR, M/SEC               1063.3
 CF                         0.6607
 Ivac, M/SEC                1313.5
 Isp, M/SEC                  702.5


 MOLE FRACTIONS

 CH4              0.04505  0.04438
 *CO              0.12015  0.10884
 *CO2             0.00770  0.01046
 C2H4             0.00001  0.00000
 C2H6             0.00001  0.00000
 HCN              0.00003  0.00001
 *H2              0.27944  0.27482
 H2O              0.02733  0.03290
 NH3              0.00046  0.00037
 *N2              0.16264  0.16247
 C(gr)            0.35719  0.36572

  * THERMODYNAMIC PROPERTIES FITTED TO 20000.K

    PRODUCTS WHICH WERE CONSIDERED BUT WHOSE MOLE FRACTIONS
    WERE LESS THAN 5.000000E-06 FOR ALL ASSIGNED CONDITIONS

 *C              *CH             CH2             CH3             CH2OH          
 CH3O            CH3OH           CH3OOH          *CN             CNN            
 COOH            *C2             C2H             C2H2,acetylene  C2H2,vinylidene
 CH2CO,ketene    O(CH)2O         HO(CO)2OH       C2H3,vinyl      CH3CN          
 CH3CO,acetyl    C2H4O,ethylen-o CH3CHO,ethanal  CH3COOH         OHCH2COOH      
 C2H5            CH3N2CH3        C2H5OH          CH3OCH3         CH3O2CH3       
 CCN             CNC             OCCN            C2N2            C2O            
 *C3             C3H3,1-propynl  C3H3,2-propynl  C3H4,allene     C3H4,propyne   
 C3H4,cyclo-     C3H5,allyl      C3H6,propylene  C3H6,cyclo-     C3H6O,propylox 
 C3H6O,acetone   C3H6O,propanal  C3H7,n-propyl   C3H7,i-propyl   C3H8           
 C3H8O,1propanol C3H8O,2propanol CNCOCN          C3O2            *C4            
 C4H2,butadiyne  C4H4,1,3-cyclo- C4H6,butadiene  C4H6,1butyne    C4H6,2butyne   
 C4H6,cyclo-     C4H8,1-butene   C4H8,cis2-buten C4H8,tr2-butene C4H8,isobutene 
 C4H8,cyclo-     (CH3COOH)2      C4H9,n-butyl    C4H9,i-butyl    C4H9,s-butyl   
 C4H9,t-butyl    C4H10,n-butane  C4H10,isobutane C4N2            *C5            
 C5H6,1,3cyclo-  C5H8,cyclo-     C5H10,1-pentene C5H10,cyclo-    C5H11,pentyl   
 C5H11,t-pentyl  C5H12,n-pentane C5H12,i-pentane CH3C(CH3)2CH3   C6H2           
 C6H5,phenyl     C6H5O,phenoxy   C6H6            C6H5OH,phenol   C6H10,cyclo-   
 C6H12,1-hexene  C6H12,cyclo-    C6H13,n-hexyl   C6H14,n-hexane  C7H7,benzyl    
 C7H8            C7H8O,cresol-mx C7H14,1-heptene C7H15,n-heptyl  C7H16,n-heptane
 C7H16,2-methylh C8H8,styrene    C8H10,ethylbenz C8H16,1-octene  C8H17,n-octyl  
 C8H18,n-octane  C8H18,isooctane C9H19,n-nonyl   C10H8,naphthale C10H21,n-decyl 
 C12H9,o-bipheny C12H10,biphenyl *H              HCO             HCCN           
 HCCO            HNC             HNCO            HNO             HNO2           
 HNO3            HO2             HCHO,formaldehy HCOOH           H2O2           
 (HCOOH)2        *N              NCO             *NH             NH2            
 NH2OH           *NO             NO2             NO3             NCN            
 N2H2            NH2NO2          N2H4            N2O             N2O3           
 N2O4            N2O5            N3              N3H             *O             
 *OH             *O2             O3              H2O(cr)         H2O(L)         

 NOTE. WEIGHT FRACTION OF FUEL IN TOTAL FUELS AND OF OXIDANT IN TOTAL OXIDANTS






 POINT ITN      T            C           H           N           O 

   1    2    1240.117      -1.854      -7.727     -11.689     -33.292

 Pinf/Pt = 1.746237
   2    4    1165.179      -1.753      -7.924     -11.873     -34.549

 Pinf/Pt = 1.740287
   2    2    1165.608      -1.753      -7.923     -11.872     -34.541






              THEORETICAL ROCKET PERFORMANCE ASSUMING EQUILIBRIUM

           COMPOSITION DURING EXPANSION FROM INFINITE AREA COMBUSTOR

 Pin =   454.0 PSIA
 CASE =                

             REACTANT                    WT FRACTION      ENERGY      TEMP
                                          (SEE NOTE)     KJ/KG-MOL      K  
 FUEL        C4H6,butadiene               1.0000000         0.000      0.000
 OXIDANT     N2O                          1.0000000         0.000      0.000

 O/F=    1.00000  %FUEL= 50.000000  R,EQ.RATIO= 8.950580  PHI,EQ.RATIO= 8.950580

                 CHAMBER   THROAT
 Pinf/P            1.0000   1.7403
 P, BAR            31.300   17.986
 T, K             1240.12  1165.61
 RHO, KG/CU M    6.7716 0 4.1899 0
 H, KJ/KG         0.00000  -246.78
 U, KJ/KG         -462.23  -676.04
 G, KJ/KG        -11764.0 -11304.0
 S, KJ/(KG)(K)     9.4862   9.4862

 M, (1/n)          22.307   22.577
 MW, MOL WT        14.339   14.320
 (dLV/dLP)t      -1.07456 -1.07813
 (dLV/dLT)p        1.8223   1.9324
 Cp, KJ/(KG)(K)    5.8542   6.5978
 GAMMAs            1.1586   1.1498
 SON VEL,M/SEC      731.8    702.5
 MACH NUMBER        0.000    1.000

 TRANSPORT PROPERTIES (GASES ONLY)
   CONDUCTIVITY IN UNITS OF MILLIWATTS/(CM)(K)

 VISC,MILLIPOISE  0.44970  0.43289

  WITH EQUILIBRIUM REACTIONS

 Cp, KJ/(KG)(K)    7.4188   8.4122
 CONDUCTIVITY      5.4269   5.8362
 PRANDTL NUMBER    0.6148   0.6240

  WITH FROZEN REACTIONS

 Cp, KJ/(KG)(K)    2.3653   2.3409
 CONDUCTIVITY      2.0020   1.9026
 PRANDTL NUMBER    0.5313   0.5326

 PERFORMANCE PARAMETERS

 Ae/At                      1.0000
 CSTAR, M/SEC               1063.3
 CF                         0.6607
 Ivac, M/SEC                1313.6
 Isp, M/SEC                  702.5


 MOLE FRACTIONS

 CH4              0.04510  0.04443
 *CO              0.12015  0.10884
 *CO2             0.00770  0.01046
 C2H4             0.00001  0.00000
 C2H6             0.00001  0.00000
 HCN              0.00003  0.00001
 *H2              0.27936  0.27474
 H2O              0.02735  0.03292
 NH3              0.00046  0.00037
 *N2              0.16265  0.16249
 C(gr)            0.35719  0.36573

  * THERMODYNAMIC PROPERTIES FITTED TO 20000.K

    PRODUCTS WHICH WERE CONSIDERED BUT WHOSE MOLE FRACTIONS
    WERE LESS THAN 5.000000E-06 FOR ALL ASSIGNED CONDITIONS

 *C              *CH             CH2             CH3             CH2OH          
 CH3O            CH3OH           CH3OOH          *CN             CNN            
 COOH            *C2             C2H             C2H2,acetylene  C2H2,vinylidene
 CH2CO,ketene    O(CH)2O         HO(CO)2OH       C2H3,vinyl      CH3CN          
 CH3CO,acetyl    C2H4O,ethylen-o CH3CHO,ethanal  CH3COOH         OHCH2COOH      
 C2H5            CH3N2CH3        C2H5OH          CH3OCH3         CH3O2CH3       
 CCN             CNC             OCCN            C2N2            C2O            
 *C3             C3H3,1-propynl  C3H3,2-propynl  C3H4,allene     C3H4,propyne   
 C3H4,cyclo-     C3H5,allyl      C3H6,propylene  C3H6,cyclo-     C3H6O,propylox 
 C3H6O,acetone   C3H6O,propanal  C3H7,n-propyl   C3H7,i-propyl   C3H8           
 C3H8O,1propanol C3H8O,2propanol CNCOCN          C3O2            *C4            
 C4H2,butadiyne  C4H4,1,3-cyclo- C4H6,butadiene  C4H6,1butyne    C4H6,2butyne   
 C4H6,cyclo-     C4H8,1-butene   C4H8,cis2-buten C4H8,tr2-butene C4H8,isobutene 
 C4H8,cyclo-     (CH3COOH)2      C4H9,n-butyl    C4H9,i-butyl    C4H9,s-butyl   
 C4H9,t-butyl    C4H10,n-butane  C4H10,isobutane C4N2            *C5            
 C5H6,1,3cyclo-  C5H8,cyclo-     C5H10,1-pentene C5H10,cyclo-    C5H11,pentyl   
 C5H11,t-pentyl  C5H12,n-pentane C5H12,i-pentane CH3C(CH3)2CH3   C6H2           
 C6H5,phenyl     C6H5O,phenoxy   C6H6            C6H5OH,phenol   C6H10,cyclo-   
 C6H12,1-hexene  C6H12,cyclo-    C6H13,n-hexyl   C6H14,n-hexane  C7H7,benzyl    
 C7H8            C7H8O,cresol-mx C7H14,1-heptene C7H15,n-heptyl  C7H16,n-heptane
 C7H16,2-methylh C8H8,styrene    C8H10,ethylbenz C8H16,1-octene  C8H17,n-octyl  
 C8H18,n-octane  C8H18,isooctane C9H19,n-nonyl   C10H8,naphthale C10H21,n-decyl 
 C12H9,o-bipheny C12H10,biphenyl *H              HCO             HCCN           
 HCCO            HNC             HNCO            HNO             HNO2           
 HNO3            HO2             HCHO,formaldehy HCOOH           H2O2           
 (HCOOH)2        *N              NCO             *NH             NH2            
 NH2OH           *NO             NO2             NO3             NCN            
 N2H2            NH2NO2          N2H4            N2O             N2O3           
 N2O4            N2O5            N3              N3H             *O             
 *OH             *O2             O3              H2O(cr)         H2O(L)         

 NOTE. WEIGHT FRACTION OF FUEL IN TOTAL FUELS AND OF OXIDANT IN TOTAL OXIDANTS






 O/F =   1.500000

                       EFFECTIVE FUEL     EFFECTIVE OXIDANT        MIXTURE
 ENTHALPY                  h(2)/R              h(1)/R               h0/R
 (KG-MOL)(K)/KG        0.00000000E+00      0.00000000E+00      0.00000000E+00

 KG-FORM.WT./KG             bi(2)               bi(1)               b0i
  *C                   0.73950221E-01      0.00000000E+00      0.29580088E-01
  *H                   0.11092533E+00      0.00000000E+00      0.44370133E-01
  *N                   0.00000000E+00      0.45441326E-01      0.27264796E-01
  *O                   0.00000000E+00      0.22720663E-01      0.13632398E-01

 POINT ITN      T            C           H           N           O 

   1    4    1315.732      -1.955      -7.886     -11.722     -32.486

 Pinf/Pt = 1.764199
   2    4    1223.058      -1.831      -8.075     -11.894     -33.788

 Pinf/Pt = 1.753336
   2    2    1223.977      -1.833      -8.073     -11.892     -33.774

 Pinf/Pt = 1.753443
   2    1    1223.968      -1.833      -8.073     -11.892     -33.774






              THEORETICAL ROCKET PERFORMANCE ASSUMING EQUILIBRIUM

           COMPOSITION DURING EXPANSION FROM INFINITE AREA COMBUSTOR

 Pin =   435.1 PSIA
 CASE =                

             REACTANT                    WT FRACTION      ENERGY      TEMP
                                          (SEE NOTE)     KJ/KG-MOL      K  
 FUEL        C4H6,butadiene               1.0000000         0.000      0.000
 OXIDANT     N2O                          1.0000000         0.000      0.000

 O/F=    1.50000  %FUEL= 40.000000  R,EQ.RATIO= 5.967053  PHI,EQ.RATIO= 5.967053

                 CHAMBER   THROAT
 Pinf/P            1.0000   1.7534
 P, BAR            30.000   17.109
 T, K             1315.73  1223.97
 RHO, KG/CU M    5.9034 0 3.6677 0
 H, KJ/KG         0.00000  -273.36
 U, KJ/KG         -508.18  -739.85
 G, KJ/KG        -12801.3 -12181.8
 S, KJ/(KG)(K)     9.7294   9.7294

 M, (1/n)          21.527   21.816
 MW, MOL WT        16.038   16.055
 (dLV/dLP)t      -1.04793 -1.05528
 (dLV/dLT)p        1.5146   1.6606
 Cp, KJ/(KG)(K)    4.2980   5.2014
 GAMMAs            1.1879   1.1720
 SON VEL,M/SEC      777.0    739.4
 MACH NUMBER        0.000    1.000

 TRANSPORT PROPERTIES (GASES ONLY)
   CONDUCTIVITY IN UNITS OF MILLIWATTS/(CM)(K)

 VISC,MILLIPOISE  0.47910  0.45811

  WITH EQUILIBRIUM REACTIONS

 Cp, KJ/(KG)(K)    4.6774   5.5090
 CONDUCTIVITY      3.7214   4.0894
 PRANDTL NUMBER    0.6022   0.6171

  WITH FROZEN REACTIONS

 Cp, KJ/(KG)(K)    2.0320   2.0084
 CONDUCTIVITY      1.8536   1.7415
 PRANDTL NUMBER    0.5252   0.5283

 PERFORMANCE PARAMETERS

 Ae/At                      1.0000
 CSTAR, M/SEC               1106.2
 CF                         0.6684
 Ivac, M/SEC                1370.3
 Isp, M/SEC                  739.4


 MOLE FRACTIONS

 CH4              0.02421  0.02481
 *CO              0.18896  0.17618
 *CO2             0.00618  0.00980
 C2H4             0.00001  0.00000
 HCN              0.00007  0.00003
 *H2              0.28951  0.28303
 H2O              0.01731  0.02308
 NH3              0.00034  0.00028
 *N2              0.21843  0.21871
 C(gr)            0.25497  0.26407

  * THERMODYNAMIC PROPERTIES FITTED TO 20000.K

    PRODUCTS WHICH WERE CONSIDERED BUT WHOSE MOLE FRACTIONS
    WERE LESS THAN 5.000000E-06 FOR ALL ASSIGNED CONDITIONS

 *C              *CH             CH2             CH3             CH2OH          
 CH3O            CH3OH           CH3OOH          *CN             CNN            
 COOH            *C2             C2H             C2H2,acetylene  C2H2,vinylidene
 CH2CO,ketene    O(CH)2O         HO(CO)2OH       C2H3,vinyl      CH3CN          
 CH3CO,acetyl    C2H4O,ethylen-o CH3CHO,ethanal  CH3COOH         OHCH2COOH      
 C2H5            C2H6            CH3N2CH3        C2H5OH          CH3OCH3        
 CH3O2CH3        CCN             CNC             OCCN            C2N2           
 C2O             *C3             C3H3,1-propynl  C3H3,2-propynl  C3H4,allene    
 C3H4,propyne    C3H4,cyclo-     C3H5,allyl      C3H6,propylene  C3H6,cyclo-    
 C3H6O,propylox  C3H6O,acetone   C3H6O,propanal  C3H7,n-propyl   C3H7,i-propyl  
 C3H8            C3H8O,1propanol C3H8O,2propanol CNCOCN          C3O2           
 *C4             C4H2,butadiyne  C4H4,1,3-cyclo- C4H6,butadiene  C4H6,1butyne   
 C4H6,2butyne    C4H6,cyclo-     C4H8,1-butene   C4H8,cis2-buten C4H8,tr2-butene
 C4H8,isobutene  C4H8,cyclo-     (CH3COOH)2      C4H9,n-butyl    C4H9,i-butyl   
 C4H9,s-butyl    C4H9,t-butyl    C4H10,n-butane  C4H10,isobutane C4N2           
 *C5             C5H6,1,3cyclo-  C5H8,cyclo-     C5H10,1-pentene C5H10,cyclo-   
 C5H11,pentyl    C5H11,t-pentyl  C5H12,n-pentane C5H12,i-pentane CH3C(CH3)2CH3  
 C6H2            C6H5,phenyl     C6H5O,phenoxy   C6H6            C6H5OH,phenol  
 C6H10,cyclo-    C6H12,1-hexene  C6H12,cyclo-    C6H13,n-hexyl   C6H14,n-hexane 
 C7H7,benzyl     C7H8            C7H8O,cresol-mx C7H14,1-heptene C7H15,n-heptyl 
 C7H16,n-heptane C7H16,2-methylh C8H8,styrene    C8H10,ethylbenz C8H16,1-octene 
 C8H17,n-octyl   C8H18,n-octane  C8H18,isooctane C9H19,n-nonyl   C10H8,naphthale
 C10H21,n-decyl  C12H9,o-bipheny C12H10,biphenyl *H              HCO            
 HCCN            HCCO            HNC             HNCO            HNO            
 HNO2            HNO3            HO2             HCHO,formaldehy HCOOH          
 H2O2            (HCOOH)2        *N              NCO             *NH            
 NH2             NH2OH           *NO             NO2             NO3            
 NCN             N2H2            NH2NO2          N2H4            N2O            
 N2O3            N2O4            N2O5            N3              N3H            
 *O              *OH             *O2             O3              H2O(cr)        
 H2O(L)         

 NOTE. WEIGHT FRACTION OF FUEL IN TOTAL FUELS AND OF OXIDANT IN TOTAL OXIDANTS






 POINT ITN      T            C           H           N           O 

   1    2    1317.732      -1.957      -7.873     -11.707     -32.440

 Pinf/Pt = 1.764095
   2    4    1224.973      -1.834      -8.062     -11.879     -33.741

 Pinf/Pt = 1.753311
   2    2    1225.886      -1.835      -8.059     -11.877     -33.727

 Pinf/Pt = 1.753417
   2    1    1225.877      -1.835      -8.059     -11.877     -33.727






              THEORETICAL ROCKET PERFORMANCE ASSUMING EQUILIBRIUM

           COMPOSITION DURING EXPANSION FROM INFINITE AREA COMBUSTOR

 Pin =   449.6 PSIA
 CASE =                

             REACTANT                    WT FRACTION      ENERGY      TEMP
                                          (SEE NOTE)     KJ/KG-MOL      K  
 FUEL        C4H6,butadiene               1.0000000         0.000      0.000
 OXIDANT     N2O                          1.0000000         0.000      0.000

 O/F=    1.50000  %FUEL= 40.000000  R,EQ.RATIO= 5.967053  PHI,EQ.RATIO= 5.967053

                 CHAMBER   THROAT
 Pinf/P            1.0000   1.7534
 P, BAR            31.000   17.680
 T, K             1317.73  1225.88
 RHO, KG/CU M    6.0957 0 3.7871 0
 H, KJ/KG         0.00000  -273.56
 U, KJ/KG         -508.55  -740.41
 G, KJ/KG        -12804.0 -12185.1
 S, KJ/(KG)(K)     9.7167   9.7167

 M, (1/n)          21.544   21.833
 MW, MOL WT        16.050   16.066
 (dLV/dLP)t      -1.04836 -1.05566
 (dLV/dLT)p        1.5182   1.6637
 Cp, KJ/(KG)(K)    4.3085   5.2079
 GAMMAs            1.1878   1.1720
 SON VEL,M/SEC      777.2    739.7
 MACH NUMBER        0.000    1.000

 TRANSPORT PROPERTIES (GASES ONLY)
   CONDUCTIVITY IN UNITS OF MILLIWATTS/(CM)(K)

 VISC,MILLIPOISE  0.47957  0.45857

  WITH EQUILIBRIUM REACTIONS

 Cp, KJ/(KG)(K)    4.6909   5.5209
 CONDUCTIVITY      3.7363   4.1044
 PRANDTL NUMBER    0.6021   0.6168

  WITH FROZEN REACTIONS

 Cp, KJ/(KG)(K)    2.0326   2.0090
 CONDUCTIVITY      1.8542   1.7422
 PRANDTL NUMBER    0.5257   0.5288

 PERFORMANCE PARAMETERS

 Ae/At                      1.0000
 CSTAR, M/SEC               1106.7
 CF                         0.6684
 Ivac, M/SEC                1370.8
 Isp, M/SEC                  739.7


 MOLE FRACTIONS

 CH4              0.02458  0.02517
 *CO              0.18883  0.17602
 *CO2             0.00624  0.00986
 C2H4             0.00001  0.00000
 HCN              0.00007  0.00003
 *H2              0.28881  0.28235
 H2O              0.01750  0.02328
 NH3              0.00035  0.00029
 *N2              0.21859  0.21886
 C(gr)            0.25502  0.26415

  * THERMODYNAMIC PROPERTIES FITTED TO 20000.K

    PRODUCTS WHICH WERE CONSIDERED BUT WHOSE MOLE FRACTIONS
    WERE LESS THAN 5.000000E-06 FOR ALL ASSIGNED CONDITIONS

 *C              *CH             CH2             CH3             CH2OH          
 CH3O            CH3OH           CH3OOH          *CN             CNN            
 COOH            *C2             C2H             C2H2,acetylene  C2H2,vinylidene
 CH2CO,ketene    O(CH)2O         HO(CO)2OH       C2H3,vinyl      CH3CN          
 CH3CO,acetyl    C2H4O,ethylen-o CH3CHO,ethanal  CH3COOH         OHCH2COOH      
 C2H5            C2H6            CH3N2CH3        C2H5OH          CH3OCH3        
 CH3O2CH3        CCN             CNC             OCCN            C2N2           
 C2O             *C3             C3H3,1-propynl  C3H3,2-propynl  C3H4,allene    
 C3H4,propyne    C3H4,cyclo-     C3H5,allyl      C3H6,propylene  C3H6,cyclo-    
 C3H6O,propylox  C3H6O,acetone   C3H6O,propanal  C3H7,n-propyl   C3H7,i-propyl  
 C3H8            C3H8O,1propanol C3H8O,2propanol CNCOCN          C3O2           
 *C4             C4H2,butadiyne  C4H4,1,3-cyclo- C4H6,butadiene  C4H6,1butyne   
 C4H6,2butyne    C4H6,cyclo-     C4H8,1-butene   C4H8,cis2-buten C4H8,tr2-butene
 C4H8,isobutene  C4H8,cyclo-     (CH3COOH)2      C4H9,n-butyl    C4H9,i-butyl   
 C4H9,s-butyl    C4H9,t-butyl    C4H10,n-butane  C4H10,isobutane C4N2           
 *C5             C5H6,1,3cyclo-  C5H8,cyclo-     C5H10,1-pentene C5H10,cyclo-   
 C5H11,pentyl    C5H11,t-pentyl  C5H12,n-pentane C5H12,i-pentane CH3C(CH3)2CH3  
 C6H2            C6H5,phenyl     C6H5O,phenoxy   C6H6            C6H5OH,phenol  
 C6H10,cyclo-    C6H12,1-hexene  C6H12,cyclo-    C6H13,n-hexyl   C6H14,n-hexane 
 C7H7,benzyl     C7H8            C7H8O,cresol-mx C7H14,1-heptene C7H15,n-heptyl 
 C7H16,n-heptane C7H16,2-methylh C8H8,styrene    C8H10,ethylbenz C8H16,1-octene 
 C8H17,n-octyl   C8H18,n-octane  C8H18,isooctane C9H19,n-nonyl   C10H8,naphthale
 C10H21,n-decyl  C12H9,o-bipheny C12H10,biphenyl *H              HCO            
 HCCN            HCCO            HNC             HNCO            HNO            
 HNO2            HNO3            HO2             HCHO,formaldehy HCOOH          
 H2O2            (HCOOH)2        *N              NCO             *NH            
 NH2             NH2OH           *NO             NO2             NO3            
 NCN             N2H2            NH2NO2          N2H4            N2O            
 N2O3            N2O4            N2O5            N3              N3H            
 *O              *OH             *O2             O3              H2O(cr)        
 H2O(L)         

 NOTE. WEIGHT FRACTION OF FUEL IN TOTAL FUELS AND OF OXIDANT IN TOTAL OXIDANTS






 POINT ITN      T            C           H           N           O 

   1    2    1318.028      -1.958      -7.871     -11.705     -32.433

 Pinf/Pt = 1.764080
   2    4    1225.255      -1.834      -8.060     -11.877     -33.734

 Pinf/Pt = 1.753307
   2    2    1226.168      -1.836      -8.057     -11.875     -33.720

 Pinf/Pt = 1.753413
   2    1    1226.159      -1.836      -8.058     -11.875     -33.720






              THEORETICAL ROCKET PERFORMANCE ASSUMING EQUILIBRIUM

           COMPOSITION DURING EXPANSION FROM INFINITE AREA COMBUSTOR

 Pin =   451.8 PSIA
 CASE =                

             REACTANT                    WT FRACTION      ENERGY      TEMP
                                          (SEE NOTE)     KJ/KG-MOL      K  
 FUEL        C4H6,butadiene               1.0000000         0.000      0.000
 OXIDANT     N2O                          1.0000000         0.000      0.000

 O/F=    1.50000  %FUEL= 40.000000  R,EQ.RATIO= 5.967053  PHI,EQ.RATIO= 5.967053

                 CHAMBER   THROAT
 Pinf/P            1.0000   1.7534
 P, BAR            31.150   17.765
 T, K             1318.03  1226.16
 RHO, KG/CU M    6.1246 0 3.8050 0
 H, KJ/KG         0.00000  -273.59
 U, KJ/KG         -508.61  -740.49
 G, KJ/KG        -12804.5 -12185.6
 S, KJ/(KG)(K)     9.7149   9.7149

 M, (1/n)          21.547   21.835
 MW, MOL WT        16.052   16.067
 (dLV/dLP)t      -1.04843 -1.05572
 (dLV/dLT)p        1.5187   1.6641
 Cp, KJ/(KG)(K)    4.3100   5.2088
 GAMMAs            1.1877   1.1720
 SON VEL,M/SEC      777.2    739.7
 MACH NUMBER        0.000    1.000

 TRANSPORT PROPERTIES (GASES ONLY)
   CONDUCTIVITY IN UNITS OF MILLIWATTS/(CM)(K)

 VISC,MILLIPOISE  0.47964  0.45864

  WITH EQUILIBRIUM REACTIONS

 Cp, KJ/(KG)(K)    4.6928   5.5227
 CONDUCTIVITY      3.7385   4.1066
 PRANDTL NUMBER    0.6021   0.6168

  WITH FROZEN REACTIONS

 Cp, KJ/(KG)(K)    2.0327   2.0091
 CONDUCTIVITY      1.8543   1.7422
 PRANDTL NUMBER    0.5258   0.5289

 PERFORMANCE PARAMETERS

 Ae/At                     1.00000
 CSTAR, M/SEC               1106.7
 CF                         0.6684
 Ivac, M/SEC                1370.9
 Isp, M/SEC                  739.7


 MOLE FRACTIONS

 CH4              0.02464  0.02522
 *CO              0.18881  0.17600
 *CO2             0.00624  0.00986
 C2H4             0.00001  0.00000
 HCN              0.00007  0.00003
 *H2              0.28871  0.28225
 H2O              0.01753  0.02331
 NH3              0.00035  0.00029
 *N2              0.21861  0.21888
 C(gr)            0.25502  0.26416

  * THERMODYNAMIC PROPERTIES FITTED TO 20000.K

    PRODUCTS WHICH WERE CONSIDERED BUT WHOSE MOLE FRACTIONS
    WERE LESS THAN 5.000000E-06 FOR ALL ASSIGNED CONDITIONS

 *C              *CH             CH2             CH3             CH2OH          
 CH3O            CH3OH           CH3OOH          *CN             CNN            
 COOH            *C2             C2H             C2H2,acetylene  C2H2,vinylidene
 CH2CO,ketene    O(CH)2O         HO(CO)2OH       C2H3,vinyl      CH3CN          
 CH3CO,acetyl    C2H4O,ethylen-o CH3CHO,ethanal  CH3COOH         OHCH2COOH      
 C2H5            C2H6            CH3N2CH3        C2H5OH          CH3OCH3        
 CH3O2CH3        CCN             CNC             OCCN            C2N2           
 C2O             *C3             C3H3,1-propynl  C3H3,2-propynl  C3H4,allene    
 C3H4,propyne    C3H4,cyclo-     C3H5,allyl      C3H6,propylene  C3H6,cyclo-    
 C3H6O,propylox  C3H6O,acetone   C3H6O,propanal  C3H7,n-propyl   C3H7,i-propyl  
 C3H8            C3H8O,1propanol C3H8O,2propanol CNCOCN          C3O2           
 *C4             C4H2,butadiyne  C4H4,1,3-cyclo- C4H6,butadiene  C4H6,1butyne   
 C4H6,2butyne    C4H6,cyclo-     C4H8,1-butene   C4H8,cis2-buten C4H8,tr2-butene
 C4H8,isobutene  C4H8,cyclo-     (CH3COOH)2      C4H9,n-butyl    C4H9,i-butyl   
 C4H9,s-butyl    C4H9,t-butyl    C4H10,n-butane  C4H10,isobutane C4N2           
 *C5             C5H6,1,3cyclo-  C5H8,cyclo-     C5H10,1-pentene C5H10,cyclo-   
 C5H11,pentyl    C5H11,t-pentyl  C5H12,n-pentane C5H12,i-pentane CH3C(CH3)2CH3  
 C6H2            C6H5,phenyl     C6H5O,phenoxy   C6H6            C6H5OH,phenol  
 C6H10,cyclo-    C6H12,1-hexene  C6H12,cyclo-    C6H13,n-hexyl   C6H14,n-hexane 
 C7H7,benzyl     C7H8            C7H8O,cresol-mx C7H14,1-heptene C7H15,n-heptyl 
 C7H16,n-heptane C7H16,2-methylh C8H8,styrene    C8H10,ethylbenz C8H16,1-octene 
 C8H17,n-octyl   C8H18,n-octane  C8H18,isooctane C9H19,n-nonyl   C10H8,naphthale
 C10H21,n-decyl  C12H9,o-bipheny C12H10,biphenyl *H              HCO            
 HCCN            HCCO            HNC             HNCO            HNO            
 HNO2            HNO3            HO2             HCHO,formaldehy HCOOH          
 H2O2            (HCOOH)2        *N              NCO             *NH            
 NH2             NH2OH           *NO             NO2             NO3            
 NCN             N2H2            NH2NO2          N2H4            N2O            
 N2O3            N2O4            N2O5            N3              N3H            
 *O              *OH             *O2             O3              H2O(cr)        
 H2O(L)         

 NOTE. WEIGHT FRACTION OF FUEL IN TOTAL FUELS AND OF OXIDANT IN TOTAL OXIDANTS






 POINT ITN      T            C           H           N           O 

   1    2    1318.126      -1.958      -7.870     -11.705     -32.431

 Pinf/Pt = 1.764075
   2    4    1225.349      -1.834      -8.059     -11.876     -33.731

 Pinf/Pt = 1.753306
   2    2    1226.262      -1.836      -8.057     -11.874     -33.717

 Pinf/Pt = 1.753412
   2    1    1226.253      -1.836      -8.057     -11.874     -33.717






              THEORETICAL ROCKET PERFORMANCE ASSUMING EQUILIBRIUM

           COMPOSITION DURING EXPANSION FROM INFINITE AREA COMBUSTOR

 Pin =   452.5 PSIA
 CASE =                

             REACTANT                    WT FRACTION      ENERGY      TEMP
                                          (SEE NOTE)     KJ/KG-MOL      K  
 FUEL        C4H6,butadiene               1.0000000         0.000      0.000
 OXIDANT     N2O                          1.0000000         0.000      0.000

 O/F=    1.50000  %FUEL= 40.000000  R,EQ.RATIO= 5.967053  PHI,EQ.RATIO= 5.967053

                 CHAMBER   THROAT
 Pinf/P            1.0000   1.7534
 P, BAR            31.200   17.794
 T, K             1318.13  1226.25
 RHO, KG/CU M    6.1342 0 3.8110 0
 H, KJ/KG         0.00000  -273.60
 U, KJ/KG         -508.62  -740.52
 G, KJ/KG        -12804.6 -12185.7
 S, KJ/(KG)(K)     9.7142   9.7142

 M, (1/n)          21.547   21.836
 MW, MOL WT        16.052   16.068
 (dLV/dLP)t      -1.04845 -1.05573
 (dLV/dLT)p        1.5189   1.6643
 Cp, KJ/(KG)(K)    4.3105   5.2092
 GAMMAs            1.1877   1.1720
 SON VEL,M/SEC      777.2    739.7
 MACH NUMBER        0.000    1.000

 TRANSPORT PROPERTIES (GASES ONLY)
   CONDUCTIVITY IN UNITS OF MILLIWATTS/(CM)(K)

 VISC,MILLIPOISE  0.47967  0.45867

  WITH EQUILIBRIUM REACTIONS

 Cp, KJ/(KG)(K)    4.6935   5.5232
 CONDUCTIVITY      3.7392   4.1073
 PRANDTL NUMBER    0.6021   0.6168

  WITH FROZEN REACTIONS

 Cp, KJ/(KG)(K)    2.0328   2.0091
 CONDUCTIVITY      1.8543   1.7423
 PRANDTL NUMBER    0.5258   0.5289

 PERFORMANCE PARAMETERS

 Ae/At                      1.0000
 CSTAR, M/SEC               1106.7
 CF                         0.6684
 Ivac, M/SEC                1370.9
 Isp, M/SEC                  739.7


 MOLE FRACTIONS

 CH4              0.02466  0.02524
 *CO              0.18880  0.17599
 *CO2             0.00625  0.00987
 C2H4             0.00001  0.00000
 HCN              0.00007  0.00003
 *H2              0.28867  0.28221
 H2O              0.01754  0.02332
 NH3              0.00035  0.00029
 *N2              0.21862  0.21889
 C(gr)            0.25503  0.26416

  * THERMODYNAMIC PROPERTIES FITTED TO 20000.K

    PRODUCTS WHICH WERE CONSIDERED BUT WHOSE MOLE FRACTIONS
    WERE LESS THAN 5.000000E-06 FOR ALL ASSIGNED CONDITIONS

 *C              *CH             CH2             CH3             CH2OH          
 CH3O            CH3OH           CH3OOH          *CN             CNN            
 COOH            *C2             C2H             C2H2,acetylene  C2H2,vinylidene
 CH2CO,ketene    O(CH)2O         HO(CO)2OH       C2H3,vinyl      CH3CN          
 CH3CO,acetyl    C2H4O,ethylen-o CH3CHO,ethanal  CH3COOH         OHCH2COOH      
 C2H5            C2H6            CH3N2CH3        C2H5OH          CH3OCH3        
 CH3O2CH3        CCN             CNC             OCCN            C2N2           
 C2O             *C3             C3H3,1-propynl  C3H3,2-propynl  C3H4,allene    
 C3H4,propyne    C3H4,cyclo-     C3H5,allyl      C3H6,propylene  C3H6,cyclo-    
 C3H6O,propylox  C3H6O,acetone   C3H6O,propanal  C3H7,n-propyl   C3H7,i-propyl  
 C3H8            C3H8O,1propanol C3H8O,2propanol CNCOCN          C3O2           
 *C4             C4H2,butadiyne  C4H4,1,3-cyclo- C4H6,butadiene  C4H6,1butyne   
 C4H6,2butyne    C4H6,cyclo-     C4H8,1-butene   C4H8,cis2-buten C4H8,tr2-butene
 C4H8,isobutene  C4H8,cyclo-     (CH3COOH)2      C4H9,n-butyl    C4H9,i-butyl   
 C4H9,s-butyl    C4H9,t-butyl    C4H10,n-butane  C4H10,isobutane C4N2           
 *C5             C5H6,1,3cyclo-  C5H8,cyclo-     C5H10,1-pentene C5H10,cyclo-   
 C5H11,pentyl    C5H11,t-pentyl  C5H12,n-pentane C5H12,i-pentane CH3C(CH3)2CH3  
 C6H2            C6H5,phenyl     C6H5O,phenoxy   C6H6            C6H5OH,phenol  
 C6H10,cyclo-    C6H12,1-hexene  C6H12,cyclo-    C6H13,n-hexyl   C6H14,n-hexane 
 C7H7,benzyl     C7H8            C7H8O,cresol-mx C7H14,1-heptene C7H15,n-heptyl 
 C7H16,n-heptane C7H16,2-methylh C8H8,styrene    C8H10,ethylbenz C8H16,1-octene 
 C8H17,n-octyl   C8H18,n-octane  C8H18,isooctane C9H19,n-nonyl   C10H8,naphthale
 C10H21,n-decyl  C12H9,o-bipheny C12H10,biphenyl *H              HCO            
 HCCN            HCCO            HNC             HNCO            HNO            
 HNO2            HNO3            HO2             HCHO,formaldehy HCOOH          
 H2O2            (HCOOH)2        *N              NCO             *NH            
 NH2             NH2OH           *NO             NO2             NO3            
 NCN             N2H2            NH2NO2          N2H4            N2O            
 N2O3            N2O4            N2O5            N3              N3H            
 *O              *OH             *O2             O3              H2O(cr)        
 H2O(L)         

 NOTE. WEIGHT FRACTION OF FUEL IN TOTAL FUELS AND OF OXIDANT IN TOTAL OXIDANTS






 POINT ITN      T            C           H           N           O 

   1    2    1318.322      -1.958      -7.869     -11.703     -32.427

 Pinf/Pt = 1.764065
   2    4    1225.537      -1.835      -8.058     -11.875     -33.727

 Pinf/Pt = 1.753304
   2    2    1226.449      -1.836      -8.056     -11.873     -33.713

 Pinf/Pt = 1.753409
   2    1    1226.440      -1.836      -8.056     -11.873     -33.713






              THEORETICAL ROCKET PERFORMANCE ASSUMING EQUILIBRIUM

           COMPOSITION DURING EXPANSION FROM INFINITE AREA COMBUSTOR

 Pin =   454.0 PSIA
 CASE =                

             REACTANT                    WT FRACTION      ENERGY      TEMP
                                          (SEE NOTE)     KJ/KG-MOL      K  
 FUEL        C4H6,butadiene               1.0000000         0.000      0.000
 OXIDANT     N2O                          1.0000000         0.000      0.000

 O/F=    1.50000  %FUEL= 40.000000  R,EQ.RATIO= 5.967053  PHI,EQ.RATIO= 5.967053

                 CHAMBER   THROAT
 Pinf/P            1.0000   1.7534
 P, BAR            31.300   17.851
 T, K             1318.32  1226.44
 RHO, KG/CU M    6.1534 0 3.8229 0
 H, KJ/KG         0.00000  -273.62
 U, KJ/KG         -508.66  -740.57
 G, KJ/KG        -12804.9 -12186.0
 S, KJ/(KG)(K)     9.7130   9.7130

 M, (1/n)          21.549   21.838
 MW, MOL WT        16.053   16.069
 (dLV/dLP)t      -1.04849 -1.05577
 (dLV/dLT)p        1.5192   1.6646
 Cp, KJ/(KG)(K)    4.3115   5.2098
 GAMMAs            1.1877   1.1719
 SON VEL,M/SEC      777.3    739.8
 MACH NUMBER        0.000    1.000

 TRANSPORT PROPERTIES (GASES ONLY)
   CONDUCTIVITY IN UNITS OF MILLIWATTS/(CM)(K)

 VISC,MILLIPOISE  0.47971  0.45871

  WITH EQUILIBRIUM REACTIONS

 Cp, KJ/(KG)(K)    4.6948   5.5244
 CONDUCTIVITY      3.7407   4.1088
 PRANDTL NUMBER    0.6021   0.6167

  WITH FROZEN REACTIONS

 Cp, KJ/(KG)(K)    2.0328   2.0091
 CONDUCTIVITY      1.8544   1.7423
 PRANDTL NUMBER    0.5259   0.5290

 PERFORMANCE PARAMETERS

 Ae/At                     1.00000
 CSTAR, M/SEC               1106.8
 CF                         0.6684
 Ivac, M/SEC                1371.0
 Isp, M/SEC                  739.8


 MOLE FRACTIONS

 CH4              0.02470  0.02527
 *CO              0.18879  0.17597
 *CO2             0.00625  0.00987
 C2H4             0.00001  0.00000
 HCN              0.00007  0.00003
 *H2              0.28861  0.28215
 H2O              0.01756  0.02334
 NH3              0.00035  0.00029
 *N2              0.21863  0.21890
 C(gr)            0.25503  0.26417

  * THERMODYNAMIC PROPERTIES FITTED TO 20000.K

    PRODUCTS WHICH WERE CONSIDERED BUT WHOSE MOLE FRACTIONS
    WERE LESS THAN 5.000000E-06 FOR ALL ASSIGNED CONDITIONS

 *C              *CH             CH2             CH3             CH2OH          
 CH3O            CH3OH           CH3OOH          *CN             CNN            
 COOH            *C2             C2H             C2H2,acetylene  C2H2,vinylidene
 CH2CO,ketene    O(CH)2O         HO(CO)2OH       C2H3,vinyl      CH3CN          
 CH3CO,acetyl    C2H4O,ethylen-o CH3CHO,ethanal  CH3COOH         OHCH2COOH      
 C2H5            C2H6            CH3N2CH3        C2H5OH          CH3OCH3        
 CH3O2CH3        CCN             CNC             OCCN            C2N2           
 C2O             *C3             C3H3,1-propynl  C3H3,2-propynl  C3H4,allene    
 C3H4,propyne    C3H4,cyclo-     C3H5,allyl      C3H6,propylene  C3H6,cyclo-    
 C3H6O,propylox  C3H6O,acetone   C3H6O,propanal  C3H7,n-propyl   C3H7,i-propyl  
 C3H8            C3H8O,1propanol C3H8O,2propanol CNCOCN          C3O2           
 *C4             C4H2,butadiyne  C4H4,1,3-cyclo- C4H6,butadiene  C4H6,1butyne   
 C4H6,2butyne    C4H6,cyclo-     C4H8,1-butene   C4H8,cis2-buten C4H8,tr2-butene
 C4H8,isobutene  C4H8,cyclo-     (CH3COOH)2      C4H9,n-butyl    C4H9,i-butyl   
 C4H9,s-butyl    C4H9,t-butyl    C4H10,n-butane  C4H10,isobutane C4N2           
 *C5             C5H6,1,3cyclo-  C5H8,cyclo-     C5H10,1-pentene C5H10,cyclo-   
 C5H11,pentyl    C5H11,t-pentyl  C5H12,n-pentane C5H12,i-pentane CH3C(CH3)2CH3  
 C6H2            C6H5,phenyl     C6H5O,phenoxy   C6H6            C6H5OH,phenol  
 C6H10,cyclo-    C6H12,1-hexene  C6H12,cyclo-    C6H13,n-hexyl   C6H14,n-hexane 
 C7H7,benzyl     C7H8            C7H8O,cresol-mx C7H14,1-heptene C7H15,n-heptyl 
 C7H16,n-heptane C7H16,2-methylh C8H8,styrene    C8H10,ethylbenz C8H16,1-octene 
 C8H17,n-octyl   C8H18,n-octane  C8H18,isooctane C9H19,n-nonyl   C10H8,naphthale
 C10H21,n-decyl  C12H9,o-bipheny C12H10,biphenyl *H              HCO            
 HCCN            HCCO            HNC             HNCO            HNO            
 HNO2            HNO3            HO2             HCHO,formaldehy HCOOH          
 H2O2            (HCOOH)2        *N              NCO             *NH            
 NH2             NH2OH           *NO             NO2             NO3            
 NCN             N2H2            NH2NO2          N2H4            N2O            
 N2O3            N2O4            N2O5            N3              N3H            
 *O              *OH             *O2             O3              H2O(cr)        
 H2O(L)         

 NOTE. WEIGHT FRACTION OF FUEL IN TOTAL FUELS AND OF OXIDANT IN TOTAL OXIDANTS






 O/F =   2.000000

                       EFFECTIVE FUEL     EFFECTIVE OXIDANT        MIXTURE
 ENTHALPY                  h(2)/R              h(1)/R               h0/R
 (KG-MOL)(K)/KG        0.00000000E+00      0.00000000E+00      0.00000000E+00

 KG-FORM.WT./KG             bi(2)               bi(1)               b0i
  *C                   0.73950221E-01      0.00000000E+00      0.24650074E-01
  *H                   0.11092533E+00      0.00000000E+00      0.36975111E-01
  *N                   0.00000000E+00      0.45441326E-01      0.30294217E-01
  *O                   0.00000000E+00      0.22720663E-01      0.15147109E-01

 POINT ITN      T            C           H           N           O 

   1    4    1392.806      -2.055      -8.023     -11.761     -31.833

 Pinf/Pt = 1.784255
   2    4    1276.091      -1.902      -8.198     -11.916     -33.218

 Pinf/Pt = 1.768131
   2    2    1277.719      -1.905      -8.195     -11.913     -33.196

 Pinf/Pt = 1.768376
   2    1    1277.694      -1.904      -8.195     -11.913     -33.196






              THEORETICAL ROCKET PERFORMANCE ASSUMING EQUILIBRIUM

           COMPOSITION DURING EXPANSION FROM INFINITE AREA COMBUSTOR

 Pin =   435.1 PSIA
 CASE =                

             REACTANT                    WT FRACTION      ENERGY      TEMP
                                          (SEE NOTE)     KJ/KG-MOL      K  
 FUEL        C4H6,butadiene               1.0000000         0.000      0.000
 OXIDANT     N2O                          1.0000000         0.000      0.000

 O/F=    2.00000  %FUEL= 33.333333  R,EQ.RATIO= 4.475290  PHI,EQ.RATIO= 4.475290

                 CHAMBER   THROAT
 Pinf/P            1.0000   1.7684
 P, BAR            30.000   16.965
 T, K             1392.81  1277.69
 RHO, KG/CU M    5.4906 0 3.4267 0
 H, KJ/KG         0.00000  -296.38
 U, KJ/KG         -546.39  -791.46
 G, KJ/KG        -13732.1 -12893.5
 S, KJ/(KG)(K)     9.8593   9.8593

 M, (1/n)          21.194   21.458
 MW, MOL WT        17.631   17.674
 (dLV/dLP)t      -1.02851 -1.03733
 (dLV/dLT)p        1.2918   1.4382
 Cp, KJ/(KG)(K)    3.1266   3.9652
 GAMMAs            1.2208   1.1973
 SON VEL,M/SEC      816.7    769.9
 MACH NUMBER        0.000    1.000

 TRANSPORT PROPERTIES (GASES ONLY)
   CONDUCTIVITY IN UNITS OF MILLIWATTS/(CM)(K)

 VISC,MILLIPOISE  0.50288  0.47627

  WITH EQUILIBRIUM REACTIONS

 Cp, KJ/(KG)(K)    3.1615   3.7965
 CONDUCTIVITY      2.7070   2.9740
 PRANDTL NUMBER    0.5873   0.6080

  WITH FROZEN REACTIONS

 Cp, KJ/(KG)(K)    1.8562   1.8313
 CONDUCTIVITY      1.7576   1.6294
 PRANDTL NUMBER    0.5311   0.5353

 PERFORMANCE PARAMETERS

 Ae/At                      1.0000
 CSTAR, M/SEC               1137.1
 CF                         0.6771
 Ivac, M/SEC                1412.9
 Isp, M/SEC                  769.9


 MOLE FRACTIONS

 CH4              0.01359  0.01492
 *CO              0.24858  0.23651
 *CO2             0.00412  0.00782
 C2H4             0.00001  0.00000
 HCN              0.00015  0.00006
 *H2              0.28807  0.28099
 H2O              0.01023  0.01556
 NH3              0.00025  0.00022
 *N2              0.26685  0.26757
 C(gr)            0.16814  0.17635

  * THERMODYNAMIC PROPERTIES FITTED TO 20000.K

    PRODUCTS WHICH WERE CONSIDERED BUT WHOSE MOLE FRACTIONS
    WERE LESS THAN 5.000000E-06 FOR ALL ASSIGNED CONDITIONS

 *C              *CH             CH2             CH3             CH2OH          
 CH3O            CH3OH           CH3OOH          *CN             CNN            
 COOH            *C2             C2H             C2H2,acetylene  C2H2,vinylidene
 CH2CO,ketene    O(CH)2O         HO(CO)2OH       C2H3,vinyl      CH3CN          
 CH3CO,acetyl    C2H4O,ethylen-o CH3CHO,ethanal  CH3COOH         OHCH2COOH      
 C2H5            C2H6            CH3N2CH3        C2H5OH          CH3OCH3        
 CH3O2CH3        CCN             CNC             OCCN            C2N2           
 C2O             *C3             C3H3,1-propynl  C3H3,2-propynl  C3H4,allene    
 C3H4,propyne    C3H4,cyclo-     C3H5,allyl      C3H6,propylene  C3H6,cyclo-    
 C3H6O,propylox  C3H6O,acetone   C3H6O,propanal  C3H7,n-propyl   C3H7,i-propyl  
 C3H8            C3H8O,1propanol C3H8O,2propanol CNCOCN          C3O2           
 *C4             C4H2,butadiyne  C4H4,1,3-cyclo- C4H6,butadiene  C4H6,1butyne   
 C4H6,2butyne    C4H6,cyclo-     C4H8,1-butene   C4H8,cis2-buten C4H8,tr2-butene
 C4H8,isobutene  C4H8,cyclo-     (CH3COOH)2      C4H9,n-butyl    C4H9,i-butyl   
 C4H9,s-butyl    C4H9,t-butyl    C4H10,n-butane  C4H10,isobutane C4N2           
 *C5             C5H6,1,3cyclo-  C5H8,cyclo-     C5H10,1-pentene C5H10,cyclo-   
 C5H11,pentyl    C5H11,t-pentyl  C5H12,n-pentane C5H12,i-pentane CH3C(CH3)2CH3  
 C6H2            C6H5,phenyl     C6H5O,phenoxy   C6H6            C6H5OH,phenol  
 C6H10,cyclo-    C6H12,1-hexene  C6H12,cyclo-    C6H13,n-hexyl   C6H14,n-hexane 
 C7H7,benzyl     C7H8            C7H8O,cresol-mx C7H14,1-heptene C7H15,n-heptyl 
 C7H16,n-heptane C7H16,2-methylh C8H8,styrene    C8H10,ethylbenz C8H16,1-octene 
 C8H17,n-octyl   C8H18,n-octane  C8H18,isooctane C9H19,n-nonyl   C10H8,naphthale
 C10H21,n-decyl  C12H9,o-bipheny C12H10,biphenyl *H              HCO            
 HCCN            HCCO            HNC             HNCO            HNO            
 HNO2            HNO3            HO2             HCHO,formaldehy HCOOH          
 H2O2            (HCOOH)2        *N              NCO             *NH            
 NH2             NH2OH           *NO             NO2             NO3            
 NCN             N2H2            NH2NO2          N2H4            N2O            
 N2O3            N2O4            N2O5            N3              N3H            
 *O              *OH             *O2             O3              H2O(cr)        
 H2O(L)         

 NOTE. WEIGHT FRACTION OF FUEL IN TOTAL FUELS AND OF OXIDANT IN TOTAL OXIDANTS






 POINT ITN      T            C           H           N           O 

   1    2    1394.486      -2.057      -8.010     -11.746     -31.791

 Pinf/Pt = 1.784018
   2    4    1277.864      -1.905      -8.185     -11.901     -33.173

 Pinf/Pt = 1.768011
   2    2    1279.479      -1.907      -8.182     -11.898     -33.151

 Pinf/Pt = 1.768253
   2    1    1279.455      -1.907      -8.182     -11.898     -33.152






              THEORETICAL ROCKET PERFORMANCE ASSUMING EQUILIBRIUM

           COMPOSITION DURING EXPANSION FROM INFINITE AREA COMBUSTOR

 Pin =   449.6 PSIA
 CASE =                

             REACTANT                    WT FRACTION      ENERGY      TEMP
                                          (SEE NOTE)     KJ/KG-MOL      K  
 FUEL        C4H6,butadiene               1.0000000         0.000      0.000
 OXIDANT     N2O                          1.0000000         0.000      0.000

 O/F=    2.00000  %FUEL= 33.333333  R,EQ.RATIO= 4.475290  PHI,EQ.RATIO= 4.475290

                 CHAMBER   THROAT
 Pinf/P            1.0000   1.7683
 P, BAR            31.000   17.531
 T, K             1394.49  1279.45
 RHO, KG/CU M    5.6701 0 3.5385 0
 H, KJ/KG         0.00000  -296.55
 U, KJ/KG         -546.73  -792.00
 G, KJ/KG        -13730.7 -12894.6
 S, KJ/(KG)(K)     9.8464   9.8464

 M, (1/n)          21.207   21.472
 MW, MOL WT        17.640   17.683
 (dLV/dLP)t      -1.02893 -1.03773
 (dLV/dLT)p        1.2956   1.4420
 Cp, KJ/(KG)(K)    3.1409   3.9789
 GAMMAs            1.2204   1.1971
 SON VEL,M/SEC      816.8    770.1
 MACH NUMBER        0.000    1.000

 TRANSPORT PROPERTIES (GASES ONLY)
   CONDUCTIVITY IN UNITS OF MILLIWATTS/(CM)(K)

 VISC,MILLIPOISE  0.50327  0.47670

  WITH EQUILIBRIUM REACTIONS

 Cp, KJ/(KG)(K)    3.1771   3.8130
 CONDUCTIVITY      2.7208   2.9892
 PRANDTL NUMBER    0.5877   0.6081

  WITH FROZEN REACTIONS

 Cp, KJ/(KG)(K)    1.8567   1.8318
 CONDUCTIVITY      1.7582   1.6302
 PRANDTL NUMBER    0.5315   0.5356

 PERFORMANCE PARAMETERS

 Ae/At                      1.0000
 CSTAR, M/SEC               1137.6
 CF                         0.6770
 Ivac, M/SEC                1413.5
 Isp, M/SEC                  770.1


 MOLE FRACTIONS

 CH4              0.01386  0.01518
 *CO              0.24844  0.23631
 *CO2             0.00418  0.00789
 C2H4             0.00001  0.00000
 HCN              0.00016  0.00006
 *H2              0.28753  0.28044
 H2O              0.01040  0.01575
 NH3              0.00026  0.00022
 *N2              0.26699  0.26771
 C(gr)            0.16818  0.17644

  * THERMODYNAMIC PROPERTIES FITTED TO 20000.K

    PRODUCTS WHICH WERE CONSIDERED BUT WHOSE MOLE FRACTIONS
    WERE LESS THAN 5.000000E-06 FOR ALL ASSIGNED CONDITIONS

 *C              *CH             CH2             CH3             CH2OH          
 CH3O            CH3OH           CH3OOH          *CN             CNN            
 COOH            *C2             C2H             C2H2,acetylene  C2H2,vinylidene
 CH2CO,ketene    O(CH)2O         HO(CO)2OH       C2H3,vinyl      CH3CN          
 CH3CO,acetyl    C2H4O,ethylen-o CH3CHO,ethanal  CH3COOH         OHCH2COOH      
 C2H5            C2H6            CH3N2CH3        C2H5OH          CH3OCH3        
 CH3O2CH3        CCN             CNC             OCCN            C2N2           
 C2O             *C3             C3H3,1-propynl  C3H3,2-propynl  C3H4,allene    
 C3H4,propyne    C3H4,cyclo-     C3H5,allyl      C3H6,propylene  C3H6,cyclo-    
 C3H6O,propylox  C3H6O,acetone   C3H6O,propanal  C3H7,n-propyl   C3H7,i-propyl  
 C3H8            C3H8O,1propanol C3H8O,2propanol CNCOCN          C3O2           
 *C4             C4H2,butadiyne  C4H4,1,3-cyclo- C4H6,butadiene  C4H6,1butyne   
 C4H6,2butyne    C4H6,cyclo-     C4H8,1-butene   C4H8,cis2-buten C4H8,tr2-butene
 C4H8,isobutene  C4H8,cyclo-     (CH3COOH)2      C4H9,n-butyl    C4H9,i-butyl   
 C4H9,s-butyl    C4H9,t-butyl    C4H10,n-butane  C4H10,isobutane C4N2           
 *C5             C5H6,1,3cyclo-  C5H8,cyclo-     C5H10,1-pentene C5H10,cyclo-   
 C5H11,pentyl    C5H11,t-pentyl  C5H12,n-pentane C5H12,i-pentane CH3C(CH3)2CH3  
 C6H2            C6H5,phenyl     C6H5O,phenoxy   C6H6            C6H5OH,phenol  
 C6H10,cyclo-    C6H12,1-hexene  C6H12,cyclo-    C6H13,n-hexyl   C6H14,n-hexane 
 C7H7,benzyl     C7H8            C7H8O,cresol-mx C7H14,1-heptene C7H15,n-heptyl 
 C7H16,n-heptane C7H16,2-methylh C8H8,styrene    C8H10,ethylbenz C8H16,1-octene 
 C8H17,n-octyl   C8H18,n-octane  C8H18,isooctane C9H19,n-nonyl   C10H8,naphthale
 C10H21,n-decyl  C12H9,o-bipheny C12H10,biphenyl *H              HCO            
 HCCN            HCCO            HNC             HNCO            HNO            
 HNO2            HNO3            HO2             HCHO,formaldehy HCOOH          
 H2O2            (HCOOH)2        *N              NCO             *NH            
 NH2             NH2OH           *NO             NO2             NO3            
 NCN             N2H2            NH2NO2          N2H4            N2O            
 N2O3            N2O4            N2O5            N3              N3H            
 *O              *OH             *O2             O3              H2O(cr)        
 H2O(L)         

 NOTE. WEIGHT FRACTION OF FUEL IN TOTAL FUELS AND OF OXIDANT IN TOTAL OXIDANTS






 POINT ITN      T            C           H           N           O 

   1    2    1394.734      -2.057      -8.008     -11.744     -31.785

 Pinf/Pt = 1.783983
   2    4    1278.126      -1.905      -8.183     -11.899     -33.166

 Pinf/Pt = 1.767994
   2    2    1279.739      -1.907      -8.180     -11.896     -33.145

 Pinf/Pt = 1.768235
   2    1    1279.715      -1.907      -8.180     -11.896     -33.145






              THEORETICAL ROCKET PERFORMANCE ASSUMING EQUILIBRIUM

           COMPOSITION DURING EXPANSION FROM INFINITE AREA COMBUSTOR

 Pin =   451.8 PSIA
 CASE =                

             REACTANT                    WT FRACTION      ENERGY      TEMP
                                          (SEE NOTE)     KJ/KG-MOL      K  
 FUEL        C4H6,butadiene               1.0000000         0.000      0.000
 OXIDANT     N2O                          1.0000000         0.000      0.000

 O/F=    2.00000  %FUEL= 33.333333  R,EQ.RATIO= 4.475290  PHI,EQ.RATIO= 4.475290

                 CHAMBER   THROAT
 Pinf/P            1.0000   1.7682
 P, BAR            31.150   17.616
 T, K             1394.73  1279.71
 RHO, KG/CU M    5.6970 0 3.5553 0
 H, KJ/KG         0.00000  -296.58
 U, KJ/KG         -546.78  -792.08
 G, KJ/KG        -13730.5 -12894.8
 S, KJ/(KG)(K)     9.8445   9.8445

 M, (1/n)          21.209   21.473
 MW, MOL WT        17.642   17.684
 (dLV/dLP)t      -1.02899 -1.03779
 (dLV/dLT)p        1.2962   1.4426
 Cp, KJ/(KG)(K)    3.1430   3.9810
 GAMMAs            1.2204   1.1971
 SON VEL,M/SEC      816.9    770.2
 MACH NUMBER        0.000    1.000

 TRANSPORT PROPERTIES (GASES ONLY)
   CONDUCTIVITY IN UNITS OF MILLIWATTS/(CM)(K)

 VISC,MILLIPOISE  0.50333  0.47677

  WITH EQUILIBRIUM REACTIONS

 Cp, KJ/(KG)(K)    3.1793   3.8154
 CONDUCTIVITY      2.7229   2.9914
 PRANDTL NUMBER    0.5877   0.6081

  WITH FROZEN REACTIONS

 Cp, KJ/(KG)(K)    1.8567   1.8319
 CONDUCTIVITY      1.7583   1.6303
 PRANDTL NUMBER    0.5315   0.5357

 PERFORMANCE PARAMETERS

 Ae/At                     1.00000
 CSTAR, M/SEC               1137.6
 CF                         0.6770
 Ivac, M/SEC                1413.5
 Isp, M/SEC                  770.2


 MOLE FRACTIONS

 CH4              0.01390  0.01522
 *CO              0.24842  0.23628
 *CO2             0.00419  0.00790
 C2H4             0.00001  0.00000
 HCN              0.00016  0.00006
 *H2              0.28745  0.28035
 H2O              0.01042  0.01578
 NH3              0.00026  0.00022
 *N2              0.26701  0.26773
 C(gr)            0.16819  0.17646

  * THERMODYNAMIC PROPERTIES FITTED TO 20000.K

    PRODUCTS WHICH WERE CONSIDERED BUT WHOSE MOLE FRACTIONS
    WERE LESS THAN 5.000000E-06 FOR ALL ASSIGNED CONDITIONS

 *C              *CH             CH2             CH3             CH2OH          
 CH3O            CH3OH           CH3OOH          *CN             CNN            
 COOH            *C2             C2H             C2H2,acetylene  C2H2,vinylidene
 CH2CO,ketene    O(CH)2O         HO(CO)2OH       C2H3,vinyl      CH3CN          
 CH3CO,acetyl    C2H4O,ethylen-o CH3CHO,ethanal  CH3COOH         OHCH2COOH      
 C2H5            C2H6            CH3N2CH3        C2H5OH          CH3OCH3        
 CH3O2CH3        CCN             CNC             OCCN            C2N2           
 C2O             *C3             C3H3,1-propynl  C3H3,2-propynl  C3H4,allene    
 C3H4,propyne    C3H4,cyclo-     C3H5,allyl      C3H6,propylene  C3H6,cyclo-    
 C3H6O,propylox  C3H6O,acetone   C3H6O,propanal  C3H7,n-propyl   C3H7,i-propyl  
 C3H8            C3H8O,1propanol C3H8O,2propanol CNCOCN          C3O2           
 *C4             C4H2,butadiyne  C4H4,1,3-cyclo- C4H6,butadiene  C4H6,1butyne   
 C4H6,2butyne    C4H6,cyclo-     C4H8,1-butene   C4H8,cis2-buten C4H8,tr2-butene
 C4H8,isobutene  C4H8,cyclo-     (CH3COOH)2      C4H9,n-butyl    C4H9,i-butyl   
 C4H9,s-butyl    C4H9,t-butyl    C4H10,n-butane  C4H10,isobutane C4N2           
 *C5             C5H6,1,3cyclo-  C5H8,cyclo-     C5H10,1-pentene C5H10,cyclo-   
 C5H11,pentyl    C5H11,t-pentyl  C5H12,n-pentane C5H12,i-pentane CH3C(CH3)2CH3  
 C6H2            C6H5,phenyl     C6H5O,phenoxy   C6H6            C6H5OH,phenol  
 C6H10,cyclo-    C6H12,1-hexene  C6H12,cyclo-    C6H13,n-hexyl   C6H14,n-hexane 
 C7H7,benzyl     C7H8            C7H8O,cresol-mx C7H14,1-heptene C7H15,n-heptyl 
 C7H16,n-heptane C7H16,2-methylh C8H8,styrene    C8H10,ethylbenz C8H16,1-octene 
 C8H17,n-octyl   C8H18,n-octane  C8H18,isooctane C9H19,n-nonyl   C10H8,naphthale
 C10H21,n-decyl  C12H9,o-bipheny C12H10,biphenyl *H              HCO            
 HCCN            HCCO            HNC             HNCO            HNO            
 HNO2            HNO3            HO2             HCHO,formaldehy HCOOH          
 H2O2            (HCOOH)2        *N              NCO             *NH            
 NH2             NH2OH           *NO             NO2             NO3            
 NCN             N2H2            NH2NO2          N2H4            N2O            
 N2O3            N2O4            N2O5            N3              N3H            
 *O              *OH             *O2             O3              H2O(cr)        
 H2O(L)         

 NOTE. WEIGHT FRACTION OF FUEL IN TOTAL FUELS AND OF OXIDANT IN TOTAL OXIDANTS






 POINT ITN      T            C           H           N           O 

   1    2    1394.817      -2.057      -8.007     -11.744     -31.783

 Pinf/Pt = 1.783972
   2    4    1278.213      -1.905      -8.182     -11.898     -33.164

 Pinf/Pt = 1.767988
   2    2    1279.826      -1.907      -8.179     -11.895     -33.142

 Pinf/Pt = 1.768229
   2    1    1279.801      -1.907      -8.179     -11.895     -33.143






              THEORETICAL ROCKET PERFORMANCE ASSUMING EQUILIBRIUM

           COMPOSITION DURING EXPANSION FROM INFINITE AREA COMBUSTOR

 Pin =   452.5 PSIA
 CASE =                

             REACTANT                    WT FRACTION      ENERGY      TEMP
                                          (SEE NOTE)     KJ/KG-MOL      K  
 FUEL        C4H6,butadiene               1.0000000         0.000      0.000
 OXIDANT     N2O                          1.0000000         0.000      0.000

 O/F=    2.00000  %FUEL= 33.333333  R,EQ.RATIO= 4.475290  PHI,EQ.RATIO= 4.475290

                 CHAMBER   THROAT
 Pinf/P            1.0000   1.7682
 P, BAR            31.200   17.645
 T, K             1394.82  1279.80
 RHO, KG/CU M    5.7060 0 3.5608 0
 H, KJ/KG         0.00000  -296.58
 U, KJ/KG         -546.80  -792.11
 G, KJ/KG        -13730.4 -12894.8
 S, KJ/(KG)(K)     9.8439   9.8439

 M, (1/n)          21.209   21.474
 MW, MOL WT        17.642   17.685
 (dLV/dLP)t      -1.02901 -1.03781
 (dLV/dLT)p        1.2964   1.4428
 Cp, KJ/(KG)(K)    3.1437   3.9816
 GAMMAs            1.2203   1.1970
 SON VEL,M/SEC      816.9    770.2
 MACH NUMBER        0.000    1.000

 TRANSPORT PROPERTIES (GASES ONLY)
   CONDUCTIVITY IN UNITS OF MILLIWATTS/(CM)(K)

 VISC,MILLIPOISE  0.50335  0.47679

  WITH EQUILIBRIUM REACTIONS

 Cp, KJ/(KG)(K)    3.1801   3.8162
 CONDUCTIVITY      2.7235   2.9922
 PRANDTL NUMBER    0.5877   0.6081

  WITH FROZEN REACTIONS

 Cp, KJ/(KG)(K)    1.8568   1.8319
 CONDUCTIVITY      1.7583   1.6304
 PRANDTL NUMBER    0.5315   0.5357

 PERFORMANCE PARAMETERS

 Ae/At                      1.0000
 CSTAR, M/SEC               1137.7
 CF                         0.6770
 Ivac, M/SEC                1413.6
 Isp, M/SEC                  770.2


 MOLE FRACTIONS

 CH4              0.01391  0.01523
 *CO              0.24841  0.23627
 *CO2             0.00419  0.00791
 C2H4             0.00001  0.00000
 HCN              0.00016  0.00006
 *H2              0.28742  0.28033
 H2O              0.01043  0.01579
 NH3              0.00026  0.00022
 *N2              0.26702  0.26773
 C(gr)            0.16819  0.17646

  * THERMODYNAMIC PROPERTIES FITTED TO 20000.K

    PRODUCTS WHICH WERE CONSIDERED BUT WHOSE MOLE FRACTIONS
    WERE LESS THAN 5.000000E-06 FOR ALL ASSIGNED CONDITIONS

 *C              *CH             CH2             CH3             CH2OH          
 CH3O            CH3OH           CH3OOH          *CN             CNN            
 COOH            *C2             C2H             C2H2,acetylene  C2H2,vinylidene
 CH2CO,ketene    O(CH)2O         HO(CO)2OH       C2H3,vinyl      CH3CN          
[...]
 RHO, KG/CU M    4.5495 0 2.8218 0
 H, KJ/KG         0.00000  -375.88
 U, KJ/KG         -681.39  -990.93
 G, KJ/KG        -20719.1 -19106.9
 S, KJ/(KG)(K)     8.5314   8.5314

 M, (1/n)          29.634   29.680
 MW, MOL WT        29.634   29.680
 (dLV/dLP)t      -1.00103 -1.00039
 (dLV/dLT)p        1.0284   1.0120
 Cp, KJ/(KG)(K)    1.7233   1.5745
 GAMMAs            1.2065   1.2223
 SON VEL,M/SEC      906.7    867.0
 MACH NUMBER        0.000    1.000

 TRANSPORT PROPERTIES (GASES ONLY)
   CONDUCTIVITY IN UNITS OF MILLIWATTS/(CM)(K)

 VISC,MILLIPOISE  0.81211  0.75777

  WITH EQUILIBRIUM REACTIONS

 Cp, KJ/(KG)(K)    1.7233   1.5745
 CONDUCTIVITY      2.0073   1.6622
 PRANDTL NUMBER    0.6972   0.7178

  WITH FROZEN REACTIONS

 Cp, KJ/(KG)(K)    1.4260   1.4112
 CONDUCTIVITY      1.5865   1.4543
 PRANDTL NUMBER    0.7299   0.7353

 PERFORMANCE PARAMETERS

 Ae/At                      1.0000
 CSTAR, M/SEC               1267.0
 CF                         0.6843
 Ivac, M/SEC                1576.4
 Isp, M/SEC                  867.0


 MOLE FRACTIONS

 *CO              0.00198  0.00062
 *CO2             0.14412  0.14571
 *H               0.00005  0.00001
 HO2              0.00002  0.00001
 *H2              0.00024  0.00009
 H2O              0.10694  0.10846
 *NO              0.01279  0.00803
 NO2              0.00005  0.00003
 *N2              0.62199  0.62536
 *O               0.00059  0.00021
 *OH              0.00471  0.00237
 *O2              0.10652  0.10911

  * THERMODYNAMIC PROPERTIES FITTED TO 20000.K

    PRODUCTS WHICH WERE CONSIDERED BUT WHOSE MOLE FRACTIONS
    WERE LESS THAN 5.000000E-06 FOR ALL ASSIGNED CONDITIONS

 *C              *CH             CH2             CH3             CH2OH          
 CH3O            CH4             CH3OH           CH3OOH          *CN            
 CNN             COOH            *C2             C2H             C2H2,acetylene 
 C2H2,vinylidene CH2CO,ketene    O(CH)2O         HO(CO)2OH       C2H3,vinyl     
 CH3CN           CH3CO,acetyl    C2H4            C2H4O,ethylen-o CH3CHO,ethanal 
 CH3COOH         OHCH2COOH       C2H5            C2H6            CH3N2CH3       
 C2H5OH          CH3OCH3         CH3O2CH3        CCN             CNC            
 OCCN            C2N2            C2O             *C3             C3H3,1-propynl 
 C3H3,2-propynl  C3H4,allene     C3H4,propyne    C3H4,cyclo-     C3H5,allyl     
 C3H6,propylene  C3H6,cyclo-     C3H6O,propylox  C3H6O,acetone   C3H6O,propanal 
 C3H7,n-propyl   C3H7,i-propyl   C3H8            C3H8O,1propanol C3H8O,2propanol
 CNCOCN          C3O2            *C4             C4H2,butadiyne  C4H4,1,3-cyclo-
 C4H6,butadiene  C4H6,1butyne    C4H6,2butyne    C4H6,cyclo-     C4H8,1-butene  
 C4H8,cis2-buten C4H8,tr2-butene C4H8,isobutene  C4H8,cyclo-     (CH3COOH)2     
 C4H9,n-butyl    C4H9,i-butyl    C4H9,s-butyl    C4H9,t-butyl    C4H10,n-butane 
 C4H10,isobutane C4N2            *C5             C5H6,1,3cyclo-  C5H8,cyclo-    
 C5H10,1-pentene C5H10,cyclo-    C5H11,pentyl    C5H11,t-pentyl  C5H12,n-pentane
 C5H12,i-pentane CH3C(CH3)2CH3   C6H2            C6H5,phenyl     C6H5O,phenoxy  
 C6H6            C6H5OH,phenol   C6H10,cyclo-    C6H12,1-hexene  C6H12,cyclo-   
 C6H13,n-hexyl   C6H14,n-hexane  C7H7,benzyl     C7H8            C7H8O,cresol-mx
 C7H14,1-heptene C7H15,n-heptyl  C7H16,n-heptane C7H16,2-methylh C8H8,styrene   
 C8H10,ethylbenz C8H16,1-octene  C8H17,n-octyl   C8H18,n-octane  C8H18,isooctane
 C9H19,n-nonyl   C10H8,naphthale C10H21,n-decyl  C12H9,o-bipheny C12H10,biphenyl
 HCN             HCO             HCCN            HCCO            HNC            
 HNCO            HNO             HNO2            HNO3            HCHO,formaldehy
 HCOOH           H2O2            (HCOOH)2        *N              NCO            
 *NH             NH2             NH3             NH2OH           NO3            
 NCN             N2H2            NH2NO2          N2H4            N2O            
 N2O3            N2O4            N2O5            N3              N3H            
 O3              C(gr)           H2O(cr)         H2O(L)         

 NOTE. WEIGHT FRACTION OF FUEL IN TOTAL FUELS AND OF OXIDANT IN TOTAL OXIDANTS






 POINT ITN      T            C           H           N           O 

   1    1    2428.629     -22.510     -12.496     -12.325     -14.138

 Pinf/Pt = 1.775555
   2    4    2197.907     -24.365     -13.127     -12.435     -14.228

 Pinf/Pt = 1.786066
   2    2    2195.573     -24.386     -13.134     -12.436     -14.229

 Pinf/Pt = 1.786163
   2    1    2195.552     -24.386     -13.134     -12.436     -14.229






              THEORETICAL ROCKET PERFORMANCE ASSUMING EQUILIBRIUM

           COMPOSITION DURING EXPANSION FROM INFINITE AREA COMBUSTOR

 Pin =   451.8 PSIA
 CASE =                

             REACTANT                    WT FRACTION      ENERGY      TEMP
                                          (SEE NOTE)     KJ/KG-MOL      K  
 FUEL        C4H6,butadiene               1.0000000         0.000      0.000
 OXIDANT     N2O                          1.0000000         0.000      0.000

 O/F=   14.00000  %FUEL=  6.666667  R,EQ.RATIO= 0.639327  PHI,EQ.RATIO= 0.639327

                 CHAMBER   THROAT
 Pinf/P            1.0000   1.7862
 P, BAR            31.150   17.440
 T, K             2428.63  2195.55
 RHO, KG/CU M    4.5714 0 2.8354 0
 H, KJ/KG         0.00002  -375.89
 U, KJ/KG         -681.41  -990.94
 G, KJ/KG        -20716.3 -19104.0
 S, KJ/(KG)(K)     8.5300   8.5300

 M, (1/n)          29.634   29.680
 MW, MOL WT        29.634   29.680
 (dLV/dLP)t      -1.00103 -1.00039
 (dLV/dLT)p        1.0284   1.0120
 Cp, KJ/(KG)(K)    1.7229   1.5743
 GAMMAs            1.2065   1.2223
 SON VEL,M/SEC      906.7    867.0
 MACH NUMBER        0.000    1.000

 TRANSPORT PROPERTIES (GASES ONLY)
   CONDUCTIVITY IN UNITS OF MILLIWATTS/(CM)(K)

 VISC,MILLIPOISE  0.81213  0.75778

  WITH EQUILIBRIUM REACTIONS

 Cp, KJ/(KG)(K)    1.7229   1.5743
 CONDUCTIVITY      2.0067   1.6619
 PRANDTL NUMBER    0.6973   0.7178

  WITH FROZEN REACTIONS

 Cp, KJ/(KG)(K)    1.4260   1.4112
 CONDUCTIVITY      1.5866   1.4543
 PRANDTL NUMBER    0.7299   0.7353

 PERFORMANCE PARAMETERS

 Ae/At                      1.0000
 CSTAR, M/SEC               1267.1
 CF                         0.6843
 Ivac, M/SEC                1576.4
 Isp, M/SEC                  867.0


 MOLE FRACTIONS

 *CO              0.00197  0.00062
 *CO2             0.14413  0.14571
 *H               0.00005  0.00001
 HO2              0.00002  0.00001
 *H2              0.00024  0.00009
 H2O              0.10694  0.10846
 *NO              0.01279  0.00803
 NO2              0.00005  0.00003
 *N2              0.62200  0.62536
 *O               0.00059  0.00021
 *OH              0.00470  0.00237
 *O2              0.10652  0.10911

  * THERMODYNAMIC PROPERTIES FITTED TO 20000.K

    PRODUCTS WHICH WERE CONSIDERED BUT WHOSE MOLE FRACTIONS
    WERE LESS THAN 5.000000E-06 FOR ALL ASSIGNED CONDITIONS

 *C              *CH             CH2             CH3             CH2OH          
 CH3O            CH4             CH3OH           CH3OOH          *CN            
 CNN             COOH            *C2             C2H             C2H2,acetylene 
 C2H2,vinylidene CH2CO,ketene    O(CH)2O         HO(CO)2OH       C2H3,vinyl     
 CH3CN           CH3CO,acetyl    C2H4            C2H4O,ethylen-o CH3CHO,ethanal 
 CH3COOH         OHCH2COOH       C2H5            C2H6            CH3N2CH3       
 C2H5OH          CH3OCH3         CH3O2CH3        CCN             CNC            
 OCCN            C2N2            C2O             *C3             C3H3,1-propynl 
 C3H3,2-propynl  C3H4,allene     C3H4,propyne    C3H4,cyclo-     C3H5,allyl     
 C3H6,propylene  C3H6,cyclo-     C3H6O,propylox  C3H6O,acetone   C3H6O,propanal 
 C3H7,n-propyl   C3H7,i-propyl   C3H8            C3H8O,1propanol C3H8O,2propanol
 CNCOCN          C3O2            *C4             C4H2,butadiyne  C4H4,1,3-cyclo-
 C4H6,butadiene  C4H6,1butyne    C4H6,2butyne    C4H6,cyclo-     C4H8,1-butene  
 C4H8,cis2-buten C4H8,tr2-butene C4H8,isobutene  C4H8,cyclo-     (CH3COOH)2     
 C4H9,n-butyl    C4H9,i-butyl    C4H9,s-butyl    C4H9,t-butyl    C4H10,n-butane 
 C4H10,isobutane C4N2            *C5             C5H6,1,3cyclo-  C5H8,cyclo-    
 C5H10,1-pentene C5H10,cyclo-    C5H11,pentyl    C5H11,t-pentyl  C5H12,n-pentane
 C5H12,i-pentane CH3C(CH3)2CH3   C6H2            C6H5,phenyl     C6H5O,phenoxy  
 C6H6            C6H5OH,phenol   C6H10,cyclo-    C6H12,1-hexene  C6H12,cyclo-   
 C6H13,n-hexyl   C6H14,n-hexane  C7H7,benzyl     C7H8            C7H8O,cresol-mx
 C7H14,1-heptene C7H15,n-heptyl  C7H16,n-heptane C7H16,2-methylh C8H8,styrene   
 C8H10,ethylbenz C8H16,1-octene  C8H17,n-octyl   C8H18,n-octane  C8H18,isooctane
 C9H19,n-nonyl   C10H8,naphthale C10H21,n-decyl  C12H9,o-bipheny C12H10,biphenyl
 HCN             HCO             HCCN            HCCO            HNC            
 HNCO            HNO             HNO2            HNO3            HCHO,formaldehy
 HCOOH           H2O2            (HCOOH)2        *N              NCO            
 *NH             NH2             NH3             NH2OH           NO3            
 NCN             N2H2            NH2NO2          N2H4            N2O            
 N2O3            N2O4            N2O5            N3              N3H            
 O3              C(gr)           H2O(cr)         H2O(L)         

 NOTE. WEIGHT FRACTION OF FUEL IN TOTAL FUELS AND OF OXIDANT IN TOTAL OXIDANTS






 POINT ITN      T            C           H           N           O 

   1    1    2428.647     -22.510     -12.495     -12.324     -14.137

 Pinf/Pt = 1.775562
   2    4    2197.912     -24.365     -13.126     -12.434     -14.228

 Pinf/Pt = 1.786070
   2    2    2195.579     -24.386     -13.133     -12.435     -14.228

 Pinf/Pt = 1.786167
   2    1    2195.557     -24.386     -13.134     -12.435     -14.228






              THEORETICAL ROCKET PERFORMANCE ASSUMING EQUILIBRIUM

           COMPOSITION DURING EXPANSION FROM INFINITE AREA COMBUSTOR

 Pin =   452.5 PSIA
 CASE =                

             REACTANT                    WT FRACTION      ENERGY      TEMP
                                          (SEE NOTE)     KJ/KG-MOL      K  
 FUEL        C4H6,butadiene               1.0000000         0.000      0.000
 OXIDANT     N2O                          1.0000000         0.000      0.000

 O/F=   14.00000  %FUEL=  6.666667  R,EQ.RATIO= 0.639327  PHI,EQ.RATIO= 0.639327

                 CHAMBER   THROAT
 Pinf/P            1.0000   1.7862
 P, BAR            31.200   17.468
 T, K             2428.65  2195.56
 RHO, KG/CU M    4.5787 0 2.8400 0
 H, KJ/KG         0.00000  -375.89
 U, KJ/KG         -681.41  -990.95
 G, KJ/KG        -20715.4 -19103.1
 S, KJ/(KG)(K)     8.5296   8.5296

 M, (1/n)          29.634   29.680
 MW, MOL WT        29.634   29.680
 (dLV/dLP)t      -1.00103 -1.00039
 (dLV/dLT)p        1.0283   1.0120
 Cp, KJ/(KG)(K)    1.7228   1.5742
 GAMMAs            1.2066   1.2223
 SON VEL,M/SEC      906.7    867.1
 MACH NUMBER        0.000    1.000

 TRANSPORT PROPERTIES (GASES ONLY)
   CONDUCTIVITY IN UNITS OF MILLIWATTS/(CM)(K)

 VISC,MILLIPOISE  0.81213  0.75778

  WITH EQUILIBRIUM REACTIONS

 Cp, KJ/(KG)(K)    1.7228   1.5742
 CONDUCTIVITY      2.0065   1.6618
 PRANDTL NUMBER    0.6973   0.7178

  WITH FROZEN REACTIONS

 Cp, KJ/(KG)(K)    1.4260   1.4112
 CONDUCTIVITY      1.5866   1.4543
 PRANDTL NUMBER    0.7299   0.7353

 PERFORMANCE PARAMETERS

 Ae/At                      1.0000
 CSTAR, M/SEC               1267.1
 CF                         0.6843
 Ivac, M/SEC                1576.4
 Isp, M/SEC                  867.1


 MOLE FRACTIONS

 *CO              0.00197  0.00062
 *CO2             0.14413  0.14571
 *H               0.00005  0.00001
 HO2              0.00002  0.00001
 *H2              0.00024  0.00009
 H2O              0.10694  0.10846
 *NO              0.01279  0.00803
 NO2              0.00005  0.00003
 *N2              0.62200  0.62536
 *O               0.00059  0.00021
 *OH              0.00470  0.00237
 *O2              0.10652  0.10911

  * THERMODYNAMIC PROPERTIES FITTED TO 20000.K

    PRODUCTS WHICH WERE CONSIDERED BUT WHOSE MOLE FRACTIONS
    WERE LESS THAN 5.000000E-06 FOR ALL ASSIGNED CONDITIONS

 *C              *CH             CH2             CH3             CH2OH          
 CH3O            CH4             CH3OH           CH3OOH          *CN            
 CNN             COOH            *C2             C2H             C2H2,acetylene 
 C2H2,vinylidene CH2CO,ketene    O(CH)2O         HO(CO)2OH       C2H3,vinyl     
 CH3CN           CH3CO,acetyl    C2H4            C2H4O,ethylen-o CH3CHO,ethanal 
 CH3COOH         OHCH2COOH       C2H5            C2H6            CH3N2CH3       
 C2H5OH          CH3OCH3         CH3O2CH3        CCN             CNC            
 OCCN            C2N2            C2O             *C3             C3H3,1-propynl 
 C3H3,2-propynl  C3H4,allene     C3H4,propyne    C3H4,cyclo-     C3H5,allyl     
 C3H6,propylene  C3H6,cyclo-     C3H6O,propylox  C3H6O,acetone   C3H6O,propanal 
 C3H7,n-propyl   C3H7,i-propyl   C3H8            C3H8O,1propanol C3H8O,2propanol
 CNCOCN          C3O2            *C4             C4H2,butadiyne  C4H4,1,3-cyclo-
 C4H6,butadiene  C4H6,1butyne    C4H6,2butyne    C4H6,cyclo-     C4H8,1-butene  
 C4H8,cis2-buten C4H8,tr2-butene C4H8,isobutene  C4H8,cyclo-     (CH3COOH)2     
 C4H9,n-butyl    C4H9,i-butyl    C4H9,s-butyl    C4H9,t-butyl    C4H10,n-butane 
 C4H10,isobutane C4N2            *C5             C5H6,1,3cyclo-  C5H8,cyclo-    
 C5H10,1-pentene C5H10,cyclo-    C5H11,pentyl    C5H11,t-pentyl  C5H12,n-pentane
 C5H12,i-pentane CH3C(CH3)2CH3   C6H2            C6H5,phenyl     C6H5O,phenoxy  
 C6H6            C6H5OH,phenol   C6H10,cyclo-    C6H12,1-hexene  C6H12,cyclo-   
 C6H13,n-hexyl   C6H14,n-hexane  C7H7,benzyl     C7H8            C7H8O,cresol-mx
 C7H14,1-heptene C7H15,n-heptyl  C7H16,n-heptane C7H16,2-methylh C8H8,styrene   
 C8H10,ethylbenz C8H16,1-octene  C8H17,n-octyl   C8H18,n-octane  C8H18,isooctane
 C9H19,n-nonyl   C10H8,naphthale C10H21,n-decyl  C12H9,o-bipheny C12H10,biphenyl
 HCN             HCO             HCCN            HCCO            HNC            
 HNCO            HNO             HNO2            HNO3            HCHO,formaldehy
 HCOOH           H2O2            (HCOOH)2        *N              NCO            
 *NH             NH2             NH3             NH2OH           NO3            
 NCN             N2H2            NH2NO2          N2H4            N2O            
 N2O3            N2O4            N2O5            N3              N3H            
 O3              C(gr)           H2O(cr)         H2O(L)         

 NOTE. WEIGHT FRACTION OF FUEL IN TOTAL FUELS AND OF OXIDANT IN TOTAL OXIDANTS






 POINT ITN      T            C           H           N           O 

   1    1    2428.683     -22.510     -12.495     -12.323     -14.135

 Pinf/Pt = 1.775575
   2    4    2197.923     -24.365     -13.126     -12.432     -14.226

 Pinf/Pt = 1.786078
   2    2    2195.590     -24.385     -13.133     -12.433     -14.227

 Pinf/Pt = 1.786175
   2    1    2195.569     -24.386     -13.133     -12.433     -14.227






              THEORETICAL ROCKET PERFORMANCE ASSUMING EQUILIBRIUM

           COMPOSITION DURING EXPANSION FROM INFINITE AREA COMBUSTOR

 Pin =   454.0 PSIA
 CASE =                

             REACTANT                    WT FRACTION      ENERGY      TEMP
                                          (SEE NOTE)     KJ/KG-MOL      K  
 FUEL        C4H6,butadiene               1.0000000         0.000      0.000
 OXIDANT     N2O                          1.0000000         0.000      0.000

 O/F=   14.00000  %FUEL=  6.666667  R,EQ.RATIO= 0.639327  PHI,EQ.RATIO= 0.639327

                 CHAMBER   THROAT
 Pinf/P            1.0000   1.7862
 P, BAR            31.300   17.523
 T, K             2428.68  2195.57
 RHO, KG/CU M    4.5934 0 2.8491 0
 H, KJ/KG         0.00001  -375.89
 U, KJ/KG         -681.42  -990.95
 G, KJ/KG        -20713.5 -19101.2
 S, KJ/(KG)(K)     8.5287   8.5287

 M, (1/n)          29.634   29.680
 MW, MOL WT        29.634   29.680
 (dLV/dLP)t      -1.00103 -1.00039
 (dLV/dLT)p        1.0283   1.0120
 Cp, KJ/(KG)(K)    1.7225   1.5741
 GAMMAs            1.2066   1.2223
 SON VEL,M/SEC      906.7    867.1
 MACH NUMBER        0.000    1.000

 TRANSPORT PROPERTIES (GASES ONLY)
   CONDUCTIVITY IN UNITS OF MILLIWATTS/(CM)(K)

 VISC,MILLIPOISE  0.81214  0.75778

  WITH EQUILIBRIUM REACTIONS

 Cp, KJ/(KG)(K)    1.7225   1.5741
 CONDUCTIVITY      2.0061   1.6616
 PRANDTL NUMBER    0.6973   0.7179

  WITH FROZEN REACTIONS

 Cp, KJ/(KG)(K)    1.4260   1.4112
 CONDUCTIVITY      1.5866   1.4543
 PRANDTL NUMBER    0.7299   0.7353

 PERFORMANCE PARAMETERS

 Ae/At                      1.0000
 CSTAR, M/SEC               1267.1
 CF                         0.6843
 Ivac, M/SEC                1576.4
 Isp, M/SEC                  867.1


 MOLE FRACTIONS

 *CO              0.00197  0.00061
 *CO2             0.14413  0.14571
 *H               0.00005  0.00001
 HO2              0.00002  0.00001
 *H2              0.00024  0.00009
 H2O              0.10694  0.10846
 *NO              0.01279  0.00803
 NO2              0.00005  0.00003
 *N2              0.62200  0.62536
 *O               0.00059  0.00021
 *OH              0.00470  0.00237
 *O2              0.10652  0.10911

  * THERMODYNAMIC PROPERTIES FITTED TO 20000.K

    PRODUCTS WHICH WERE CONSIDERED BUT WHOSE MOLE FRACTIONS
    WERE LESS THAN 5.000000E-06 FOR ALL ASSIGNED CONDITIONS

 *C              *CH             CH2             CH3             CH2OH          
 CH3O            CH4             CH3OH           CH3OOH          *CN            
 CNN             COOH            *C2             C2H             C2H2,acetylene 
 C2H2,vinylidene CH2CO,ketene    O(CH)2O         HO(CO)2OH       C2H3,vinyl     
 CH3CN           CH3CO,acetyl    C2H4            C2H4O,ethylen-o CH3CHO,ethanal 
 CH3COOH         OHCH2COOH       C2H5            C2H6            CH3N2CH3       
 C2H5OH          CH3OCH3         CH3O2CH3        CCN             CNC            
 OCCN            C2N2            C2O             *C3             C3H3,1-propynl 
 C3H3,2-propynl  C3H4,allene     C3H4,propyne    C3H4,cyclo-     C3H5,allyl     
 C3H6,propylene  C3H6,cyclo-     C3H6O,propylox  C3H6O,acetone   C3H6O,propanal 
 C3H7,n-propyl   C3H7,i-propyl   C3H8            C3H8O,1propanol C3H8O,2propanol
 CNCOCN          C3O2            *C4             C4H2,butadiyne  C4H4,1,3-cyclo-
 C4H6,butadiene  C4H6,1butyne    C4H6,2butyne    C4H6,cyclo-     C4H8,1-butene  
 C4H8,cis2-buten C4H8,tr2-butene C4H8,isobutene  C4H8,cyclo-     (CH3COOH)2     
 C4H9,n-butyl    C4H9,i-butyl    C4H9,s-butyl    C4H9,t-butyl    C4H10,n-butane 
 C4H10,isobutane C4N2            *C5             C5H6,1,3cyclo-  C5H8,cyclo-    
 C5H10,1-pentene C5H10,cyclo-    C5H11,pentyl    C5H11,t-pentyl  C5H12,n-pentane
 C5H12,i-pentane CH3C(CH3)2CH3   C6H2            C6H5,phenyl     C6H5O,phenoxy  
 C6H6            C6H5OH,phenol   C6H10,cyclo-    C6H12,1-hexene  C6H12,cyclo-   
 C6H13,n-hexyl   C6H14,n-hexane  C7H7,benzyl     C7H8            C7H8O,cresol-mx
 C7H14,1-heptene C7H15,n-heptyl  C7H16,n-heptane C7H16,2-methylh C8H8,styrene   
 C8H10,ethylbenz C8H16,1-octene  C8H17,n-octyl   C8H18,n-octane  C8H18,isooctane
 C9H19,n-nonyl   C10H8,naphthale C10H21,n-decyl  C12H9,o-bipheny C12H10,biphenyl
 HCN             HCO             HCCN            HCCO            HNC            
 HNCO            HNO             HNO2            HNO3            HCHO,formaldehy
 HCOOH           H2O2            (HCOOH)2        *N              NCO            
 *NH             NH2             NH3             NH2OH           NO3            
 NCN             N2H2            NH2NO2          N2H4            N2O            
 N2O3            N2O4            N2O5            N3              N3H            
 O3              C(gr)           H2O(cr)         H2O(L)         

 NOTE. WEIGHT FRACTION OF FUEL IN TOTAL FUELS AND OF OXIDANT IN TOTAL OXIDANTS



