
 *******************************************************************************

         NASA-GLENN CHEMICAL EQUILIBRIUM PROGRAM CEA2, MAY 21, 2004
                   BY  BONNIE MCBRIDE AND SANFORD GORDON
      REFS: NASA RP-1311, PART I, 1994 AND NASA RP-1311, PART II, 1996

 *******************************************************************************



 problem    o/f=4,4.5,5,5.5,6,6.5,7,7.5,8,8.5,9,9.5,10,40,80,99,
     rocket  equilibrium  frozen  nfz=1  tcest,k=3000
   p,bar=10,20,30,40,50,60,70,80,
   sup,ae/at=3.75,
 react
   oxid=H2O2 wt=100  t,k=298
   fuel=H2O wt=100  t,k=298
 output
     plot o/f p t rho h g m mw cp gam pip mach cf ivac isp
 end

 OPTIONS: TP=F  HP=F  SP=F  TV=F  UV=F  SV=F  DETN=F  SHOCK=F  REFL=F  INCD=F
 RKT=T  FROZ=T  EQL=T  IONS=F  SIUNIT=T  DEBUGF=F  SHKDBG=F  DETDBG=F  TRNSPT=F

 TRACE= 0.00E+00  S/R= 0.000000E+00  H/R= 0.000000E+00  U/R= 0.000000E+00

 Pc,BAR =    10.000000    20.000000    30.000000    40.000000    50.000000    60.000000    70.000000

 Pc,BAR =    80.000000

 Pc/P =

 SUBSONIC AREA RATIOS =

 SUPERSONIC AREA RATIOS =     3.7500

 NFZ=  1  Mdot/Ac= 0.000000E+00  Ac/At= 0.000000E+00

    REACTANT          WT.FRAC   (ENERGY/R),K   TEMP,K  DENSITY
        EXPLODED FORMULA
 O: H2O2             1.000000  -0.163433E+05   298.00  0.0000
          H  2.00000  O  2.00000
 F: H2O              1.000000  -0.290854E+05   298.00  0.0000
          H  2.00000  O  1.00000

  SPECIES BEING CONSIDERED IN THIS SYSTEM
 (CONDENSED PHASE MAY HAVE NAME LISTED SEVERAL TIMES)
  LAST thermo.inp UPDATE:    9/09/04

  g 6/97  *H               g 4/02  HO2              tpis78  *H2            
  g 8/89  H2O              g 6/99  H2O2             g 5/97  *O             
  g 4/02  *OH              tpis89  *O2              g 8/01  O3             
  g11/99  H2O(cr)          g 8/01  H2O(L)           g 8/01  H2O(L)         

 O/F =   4.000000

                       EFFECTIVE FUEL     EFFECTIVE OXIDANT        MIXTURE
 ENTHALPY                  h(2)/R              h(1)/R               h0/R
 (KG-MOL)(K)/KG       -0.16144863E+04     -0.48047723E+03     -0.70727904E+03

 KG-FORM.WT./KG             bi(2)               bi(1)               b0i
  *H                   0.11101687E+00      0.58798142E-01      0.69241888E-01
  *O                   0.55508435E-01      0.58798142E-01      0.58140201E-01

 POINT ITN      T            H           O 
   1    9    1662.426     -14.289     -13.597
 Pinf/Pt = 1.782796
   2    3    1496.041     -15.285     -13.712
 Pinf/Pt = 1.789421
   2    2    1495.010     -15.292     -13.712
 Pinf/Pt = 1.789461
   2    1    1495.004     -15.292     -13.712
   3    4     906.676     -21.743     -14.227
   3    2     893.655     -21.982     -14.242
   3    1     893.681     -21.982     -14.242





              THEORETICAL ROCKET PERFORMANCE ASSUMING EQUILIBRIUM

           COMPOSITION DURING EXPANSION FROM INFINITE AREA COMBUSTOR

 Pin =   145.0 PSIA
 CASE =                

             REACTANT                    WT FRACTION      ENERGY      TEMP
                                          (SEE NOTE)     KJ/KG-MOL      K  
 OXIDANT     H2O2                         1.0000000   -135886.358    298.000
 FUEL        H2O                          1.0000000   -241831.038    298.000

 O/F=    4.00000  %FUEL= 20.000000  R,EQ.RATIO= 0.595473  PHI,EQ.RATIO= 0.000000

                 CHAMBER   THROAT     EXIT
 Pinf/P            1.0000   1.7895   23.237
 P, BAR            10.000   5.5883  0.43036
 T, K             1662.43  1495.00   893.68
 RHO, KG/CU M    1.5596 0 9.6927-1 1.2487-1
 H, KJ/KG        -5880.68 -6234.76 -7397.68
 U, KJ/KG        -6521.85 -6811.31 -7742.31
 G, KJ/KG        -24602.7 -23071.3 -17462.2
 S, KJ/(KG)(K)    11.2618  11.2618  11.2618

 M, (1/n)          21.558   21.560   21.561
 (dLV/dLP)t      -1.00004 -1.00001 -1.00000
 (dLV/dLT)p        1.0016   1.0005   1.0000
 Cp, KJ/(KG)(K)    2.1580   2.0771   1.7856
 GAMMAs            1.2184   1.2283   1.2755
 SON VEL,M/SEC      883.9    841.5    663.0
 MACH NUMBER        0.000    1.000    2.627

 PERFORMANCE PARAMETERS

 Ae/At                      1.0000   3.7500
 CSTAR, M/SEC               1226.0   1226.0
 CF                         0.6864   1.4208
 Ivac, M/SEC                1526.6   1939.7
 Isp, M/SEC                  841.5   1741.8


 MOLE FRACTIONS

 *H2              0.00001  0.00000  0.00000
 H2O              0.74608  0.74634  0.74645
 *OH              0.00052  0.00016  0.00000
 *O2              0.25338  0.25349  0.25355

  * THERMODYNAMIC PROPERTIES FITTED TO 20000.K

    PRODUCTS WHICH WERE CONSIDERED BUT WHOSE MOLE FRACTIONS
    WERE LESS THAN 5.000000E-06 FOR ALL ASSIGNED CONDITIONS

 *H              HO2             H2O2            *O              O3             
 H2O(cr)         H2O(L)         

 NOTE. WEIGHT FRACTION OF FUEL IN TOTAL FUELS AND OF OXIDANT IN TOTAL OXIDANTS





           THEORETICAL ROCKET PERFORMANCE ASSUMING FROZEN COMPOSITION

 Pin =   145.0 PSIA
 CASE =                

             REACTANT                    WT FRACTION      ENERGY      TEMP
                                          (SEE NOTE)     KJ/KG-MOL      K  
 OXIDANT     H2O2                         1.0000000   -135886.358    298.000
 FUEL        H2O                          1.0000000   -241831.038    298.000

 O/F=    4.00000  %FUEL= 20.000000  R,EQ.RATIO= 0.595473  PHI,EQ.RATIO= 0.000000

                 CHAMBER   THROAT     EXIT
 Pinf/P            1.0000   1.7901   23.249
 P, BAR            10.000   5.5862  0.43012
 T, K             1662.43  1493.62   892.17
 RHO, KG/CU M    1.5596 0 9.6972-1 1.2500-1
 H, KJ/KG        -5880.68 -6234.83 -7396.33
 U, KJ/KG        -6521.85 -6810.89 -7740.42
 G, KJ/KG        -24602.7 -23055.7 -17443.8
 S, KJ/(KG)(K)    11.2618  11.2618  11.2618

 M, (1/n)          21.558   21.558   21.558
 Cp, KJ/(KG)(K)    2.1291   2.0655   1.7849
 GAMMAs            1.2212   1.2296   1.2756
 SON VEL,M/SEC      884.9    841.6    662.5
 MACH NUMBER        0.000    1.000    2.628

 PERFORMANCE PARAMETERS

 Ae/At                      1.0000   3.7500
 CSTAR, M/SEC               1225.3   1225.3
 CF                         0.6868   1.4209
 Ivac, M/SEC                1526.1   1938.7
 Isp, M/SEC                  841.6   1741.1

 MOLE FRACTIONS

 *H2             0.00001   H2O             0.74608   *OH             0.00052
 *O2             0.25338

  * THERMODYNAMIC PROPERTIES FITTED TO 20000.K

    PRODUCTS WHICH WERE CONSIDERED BUT WHOSE MOLE FRACTIONS
    WERE LESS THAN 5.000000E-06 FOR ALL ASSIGNED CONDITIONS

 *H              HO2             H2O2            *O              O3             
 H2O(cr)         H2O(L)         

 NOTE. WEIGHT FRACTION OF FUEL IN TOTAL FUELS AND OF OXIDANT IN TOTAL OXIDANTS






 POINT ITN      T            H           O 
   1    2    1662.730     -14.114     -13.251
 Pinf/Pt = 1.783056
   2    3    1496.081     -15.111     -13.365
 Pinf/Pt = 1.789521
   2    2    1495.075     -15.118     -13.366
   3    4     906.624     -21.571     -13.880
   3    2     893.631     -21.809     -13.895
   3    1     893.656     -21.809     -13.895





              THEORETICAL ROCKET PERFORMANCE ASSUMING EQUILIBRIUM

           COMPOSITION DURING EXPANSION FROM INFINITE AREA COMBUSTOR

 Pin =   290.1 PSIA
 CASE =                

             REACTANT                    WT FRACTION      ENERGY      TEMP
                                          (SEE NOTE)     KJ/KG-MOL      K  
 OXIDANT     H2O2                         1.0000000   -135886.358    298.000
 FUEL        H2O                          1.0000000   -241831.038    298.000

 O/F=    4.00000  %FUEL= 20.000000  R,EQ.RATIO= 0.595473  PHI,EQ.RATIO= 0.000000

                 CHAMBER   THROAT     EXIT
 Pinf/P            1.0000   1.7895   23.237
 P, BAR            20.000   11.176  0.86068
 T, K             1662.73  1495.07   893.66
 RHO, KG/CU M    3.1188 0 1.9384 0 2.4975-1
 H, KJ/KG        -5880.68 -6234.82 -7397.72
 U, KJ/KG        -6521.95 -6811.38 -7742.35
 G, KJ/KG        -24161.6 -22672.4 -17223.0
 S, KJ/(KG)(K)    10.9945  10.9945  10.9945

 M, (1/n)          21.558   21.560   21.561
 (dLV/dLP)t      -1.00003 -1.00001 -1.00000
 (dLV/dLT)p        1.0013   1.0005   1.0000
 Cp, KJ/(KG)(K)    2.1534   2.0753   1.7856
 GAMMAs            1.2188   1.2285   1.2755
 SON VEL,M/SEC      884.1    841.6    663.0
 MACH NUMBER        0.000    1.000    2.627

 PERFORMANCE PARAMETERS

 Ae/At                      1.0000   3.7500
 CSTAR, M/SEC               1226.0   1226.0
 CF                         0.6865   1.4208
 Ivac, M/SEC                1526.7   1939.7
 Isp, M/SEC                  841.6   1741.9


 MOLE FRACTIONS

 H2O              0.74614  0.74636  0.74645
 *OH              0.00044  0.00014  0.00000
 *O2              0.25340  0.25350  0.25355

  * THERMODYNAMIC PROPERTIES FITTED TO 20000.K

    PRODUCTS WHICH WERE CONSIDERED BUT WHOSE MOLE FRACTIONS
    WERE LESS THAN 5.000000E-06 FOR ALL ASSIGNED CONDITIONS

 *H              HO2             *H2             H2O2            *O             
 O3              H2O(cr)         H2O(L)         

 NOTE. WEIGHT FRACTION OF FUEL IN TOTAL FUELS AND OF OXIDANT IN TOTAL OXIDANTS





           THEORETICAL ROCKET PERFORMANCE ASSUMING FROZEN COMPOSITION

 Pin =   290.1 PSIA
 CASE =                

             REACTANT                    WT FRACTION      ENERGY      TEMP
                                          (SEE NOTE)     KJ/KG-MOL      K  
 OXIDANT     H2O2                         1.0000000   -135886.358    298.000
 FUEL        H2O                          1.0000000   -241831.038    298.000

 O/F=    4.00000  %FUEL= 20.000000  R,EQ.RATIO= 0.595473  PHI,EQ.RATIO= 0.000000

                 CHAMBER   THROAT     EXIT
 Pinf/P            1.0000   1.7901   23.248
 P, BAR            20.000   11.172  0.86028
 T, K             1662.73  1493.90   892.39
 RHO, KG/CU M    3.1188 0 1.9391 0 2.4996-1
 H, KJ/KG        -5880.68 -6234.88 -7396.59
 U, KJ/KG        -6521.95 -6811.04 -7740.76
 G, KJ/KG        -24161.6 -22659.6 -17208.0
 S, KJ/(KG)(K)    10.9945  10.9945  10.9945

 M, (1/n)          21.558   21.558   21.558
 Cp, KJ/(KG)(K)    2.1292   2.0656   1.7850
 GAMMAs            1.2212   1.2296   1.2756
 SON VEL,M/SEC      884.9    841.7    662.6
 MACH NUMBER        0.000    1.000    2.628

 PERFORMANCE PARAMETERS

 Ae/At                      1.0000   3.7500
 CSTAR, M/SEC               1225.4   1225.4
 CF                         0.6868   1.4209
 Ivac, M/SEC                1526.2   1938.9
 Isp, M/SEC                  841.7   1741.2

 MOLE FRACTIONS

 H2O             0.74614   *OH             0.00044   *O2             0.25340

  * THERMODYNAMIC PROPERTIES FITTED TO 20000.K

    PRODUCTS WHICH WERE CONSIDERED BUT WHOSE MOLE FRACTIONS
    WERE LESS THAN 5.000000E-06 FOR ALL ASSIGNED CONDITIONS

 *H              HO2             *H2             H2O2            *O             
 O3              H2O(cr)         H2O(L)         

 NOTE. WEIGHT FRACTION OF FUEL IN TOTAL FUELS AND OF OXIDANT IN TOTAL OXIDANTS






 POINT ITN      T            H           O 
   1    2    1662.884     -14.012     -13.049
 Pinf/Pt = 1.783187
   2    3    1496.102     -15.010     -13.163
 Pinf/Pt = 1.789572
   2    2    1495.108     -15.016     -13.163
   3    4     906.597     -21.470     -13.678
   3    2     893.618     -21.708     -13.692
   3    1     893.644     -21.708     -13.692





              THEORETICAL ROCKET PERFORMANCE ASSUMING EQUILIBRIUM

           COMPOSITION DURING EXPANSION FROM INFINITE AREA COMBUSTOR

 Pin =   435.1 PSIA
 CASE =                

             REACTANT                    WT FRACTION      ENERGY      TEMP
                                          (SEE NOTE)     KJ/KG-MOL      K  
 OXIDANT     H2O2                         1.0000000   -135886.358    298.000
 FUEL        H2O                          1.0000000   -241831.038    298.000

 O/F=    4.00000  %FUEL= 20.000000  R,EQ.RATIO= 0.595473  PHI,EQ.RATIO= 0.000000

                 CHAMBER   THROAT     EXIT
 Pinf/P            1.0000   1.7896   23.238
 P, BAR            30.000   16.764   1.2910
 T, K             1662.88  1495.11   893.64
 RHO, KG/CU M    4.6778 0 2.9075 0 3.7462-1
 H, KJ/KG        -5880.68 -6234.85 -7397.75
 U, KJ/KG        -6522.00 -6811.43 -7742.36
 G, KJ/KG        -23903.2 -22439.0 -17083.2
 S, KJ/(KG)(K)    10.8381  10.8381  10.8381

 M, (1/n)          21.559   21.560   21.561
 (dLV/dLP)t      -1.00003 -1.00001 -1.00000
 (dLV/dLT)p        1.0012   1.0004   1.0000
 Cp, KJ/(KG)(K)    2.1511   2.0744   1.7856
 GAMMAs            1.2191   1.2286   1.2755
 SON VEL,M/SEC      884.2    841.6    663.0
 MACH NUMBER        0.000    1.000    2.627

 PERFORMANCE PARAMETERS

 Ae/At                      1.0000   3.7500
 CSTAR, M/SEC               1226.0   1226.0
 CF                         0.6865   1.4208
 Ivac, M/SEC                1526.7   1939.7
 Isp, M/SEC                  841.6   1741.9


 MOLE FRACTIONS

 H2O              0.74617  0.74637  0.74645
 *OH              0.00040  0.00013  0.00000
 *O2              0.25342  0.25351  0.25355

  * THERMODYNAMIC PROPERTIES FITTED TO 20000.K

    PRODUCTS WHICH WERE CONSIDERED BUT WHOSE MOLE FRACTIONS
    WERE LESS THAN 5.000000E-06 FOR ALL ASSIGNED CONDITIONS

 *H              HO2             *H2             H2O2            *O             
 O3              H2O(cr)         H2O(L)         

 NOTE. WEIGHT FRACTION OF FUEL IN TOTAL FUELS AND OF OXIDANT IN TOTAL OXIDANTS





           THEORETICAL ROCKET PERFORMANCE ASSUMING FROZEN COMPOSITION

 Pin =   435.1 PSIA
 CASE =                

             REACTANT                    WT FRACTION      ENERGY      TEMP
                                          (SEE NOTE)     KJ/KG-MOL      K  
 OXIDANT     H2O2                         1.0000000   -135886.358    298.000
 FUEL        H2O                          1.0000000   -241831.038    298.000

 O/F=    4.00000  %FUEL= 20.000000  R,EQ.RATIO= 0.595473  PHI,EQ.RATIO= 0.000000

                 CHAMBER   THROAT     EXIT
 Pinf/P            1.0000   1.7901   23.248
 P, BAR            30.000   16.759   1.2904
 T, K             1662.88  1494.05   892.50
 RHO, KG/CU M    4.6778 0 2.9084 0 3.7490-1
 H, KJ/KG        -5880.68 -6234.91 -7396.72
 U, KJ/KG        -6522.00 -6811.12 -7740.93
 G, KJ/KG        -23903.2 -22427.6 -17069.7
 S, KJ/(KG)(K)    10.8381  10.8381  10.8381

 M, (1/n)          21.559   21.559   21.559
 Cp, KJ/(KG)(K)    2.1293   2.0657   1.7850
 GAMMAs            1.2212   1.2296   1.2756
 SON VEL,M/SEC      885.0    841.7    662.6
 MACH NUMBER        0.000    1.000    2.628

 PERFORMANCE PARAMETERS

 Ae/At                     1.00000   3.7500
 CSTAR, M/SEC               1225.5   1225.5
 CF                         0.6868   1.4209
 Ivac, M/SEC                1526.3   1939.0
 Isp, M/SEC                  841.7   1741.3

 MOLE FRACTIONS

 H2O             0.74617   *OH             0.00040   *O2             0.25342

  * THERMODYNAMIC PROPERTIES FITTED TO 20000.K

    PRODUCTS WHICH WERE CONSIDERED BUT WHOSE MOLE FRACTIONS
    WERE LESS THAN 5.000000E-06 FOR ALL ASSIGNED CONDITIONS

 *H              HO2             *H2             H2O2            *O             
 O3              H2O(cr)         H2O(L)         

 NOTE. WEIGHT FRACTION OF FUEL IN TOTAL FUELS AND OF OXIDANT IN TOTAL OXIDANTS






 POINT ITN      T            H           O 
   1    2    1662.983     -13.939     -12.905
 Pinf/Pt = 1.783271
   2    3    1496.115     -14.938     -13.019
 Pinf/Pt = 1.789605
   2    2    1495.129     -14.944     -13.019
   3    4     906.580     -21.399     -13.534
   3    2     893.611     -21.636     -13.549
   3    1     893.636     -21.636     -13.549





              THEORETICAL ROCKET PERFORMANCE ASSUMING EQUILIBRIUM

           COMPOSITION DURING EXPANSION FROM INFINITE AREA COMBUSTOR

 Pin =   580.2 PSIA
 CASE =                

             REACTANT                    WT FRACTION      ENERGY      TEMP
                                          (SEE NOTE)     KJ/KG-MOL      K  
 OXIDANT     H2O2                         1.0000000   -135886.358    298.000
 FUEL        H2O                          1.0000000   -241831.038    298.000

 O/F=    4.00000  %FUEL= 20.000000  R,EQ.RATIO= 0.595473  PHI,EQ.RATIO= 0.000000

                 CHAMBER   THROAT     EXIT
 Pinf/P            1.0000   1.7896   23.238
 P, BAR            40.000   22.351   1.7213
 T, K             1662.98  1495.13   893.64
 RHO, KG/CU M    6.2368 0 3.8765 0 4.9949-1
 H, KJ/KG        -5880.68 -6234.87 -7397.76
 U, KJ/KG        -6522.04 -6811.46 -7742.38
 G, KJ/KG        -23719.8 -22273.4 -16984.0
 S, KJ/(KG)(K)    10.7272  10.7272  10.7272

 M, (1/n)          21.559   21.560   21.561
 (dLV/dLP)t      -1.00003 -1.00001 -1.00000
 (dLV/dLT)p        1.0011   1.0004   1.0000
 Cp, KJ/(KG)(K)    2.1496   2.0739   1.7856
 GAMMAs            1.2192   1.2286   1.2755
 SON VEL,M/SEC      884.3    841.7    663.0
 MACH NUMBER        0.000    1.000    2.627

 PERFORMANCE PARAMETERS

 Ae/At                      1.0000   3.7500
 CSTAR, M/SEC               1226.0   1226.0
 CF                         0.6865   1.4208
 Ivac, M/SEC                1526.7   1939.7
 Isp, M/SEC                  841.7   1741.9


 MOLE FRACTIONS

 H2O              0.74619  0.74637  0.74645
 *OH              0.00037  0.00012  0.00000
 *O2              0.25343  0.25351  0.25355

  * THERMODYNAMIC PROPERTIES FITTED TO 20000.K

    PRODUCTS WHICH WERE CONSIDERED BUT WHOSE MOLE FRACTIONS
    WERE LESS THAN 5.000000E-06 FOR ALL ASSIGNED CONDITIONS

 *H              HO2             *H2             H2O2            *O             
 O3              H2O(cr)         H2O(L)         

 NOTE. WEIGHT FRACTION OF FUEL IN TOTAL FUELS AND OF OXIDANT IN TOTAL OXIDANTS





           THEORETICAL ROCKET PERFORMANCE ASSUMING FROZEN COMPOSITION

 Pin =   580.2 PSIA
 CASE =                

             REACTANT                    WT FRACTION      ENERGY      TEMP
                                          (SEE NOTE)     KJ/KG-MOL      K  
 OXIDANT     H2O2                         1.0000000   -135886.358    298.000
 FUEL        H2O                          1.0000000   -241831.038    298.000

 O/F=    4.00000  %FUEL= 20.000000  R,EQ.RATIO= 0.595473  PHI,EQ.RATIO= 0.000000

                 CHAMBER   THROAT     EXIT
 Pinf/P            1.0000   1.7901   23.247
 P, BAR            40.000   22.345   1.7206
 T, K             1662.98  1494.14   892.57
 RHO, KG/CU M    6.2368 0 3.8777 0 4.9984-1
 H, KJ/KG        -5880.68 -6234.93 -7396.80
 U, KJ/KG        -6522.04 -6811.17 -7741.04
 G, KJ/KG        -23719.8 -22262.9 -16971.6
 S, KJ/(KG)(K)    10.7272  10.7272  10.7272

 M, (1/n)          21.559   21.559   21.559
 Cp, KJ/(KG)(K)    2.1293   2.0657   1.7851
 GAMMAs            1.2212   1.2296   1.2756
 SON VEL,M/SEC      885.0    841.7    662.6
 MACH NUMBER        0.000    1.000    2.628

 PERFORMANCE PARAMETERS

 Ae/At                      1.0000   3.7500
 CSTAR, M/SEC               1225.5   1225.5
 CF                         0.6868   1.4209
 Ivac, M/SEC                1526.3   1939.0
 Isp, M/SEC                  841.7   1741.3

 MOLE FRACTIONS

 H2O             0.74619   *OH             0.00037   *O2             0.25343

  * THERMODYNAMIC PROPERTIES FITTED TO 20000.K

    PRODUCTS WHICH WERE CONSIDERED BUT WHOSE MOLE FRACTIONS
    WERE LESS THAN 5.000000E-06 FOR ALL ASSIGNED CONDITIONS

 *H              HO2             *H2             H2O2            *O             
 O3              H2O(cr)         H2O(L)         

 NOTE. WEIGHT FRACTION OF FUEL IN TOTAL FUELS AND OF OXIDANT IN TOTAL OXIDANTS






 POINT ITN      T            H           O 
   1    2    1663.056     -13.883     -12.793
 Pinf/Pt = 1.783333
   2    3    1496.125     -14.882     -12.907
 Pinf/Pt = 1.789629
   2    2    1495.144     -14.888     -12.908
   3    4     906.567     -21.343     -13.422
   3    2     893.605     -21.581     -13.437
   3    1     893.630     -21.580     -13.437





              THEORETICAL ROCKET PERFORMANCE ASSUMING EQUILIBRIUM

           COMPOSITION DURING EXPANSION FROM INFINITE AREA COMBUSTOR

 Pin =   725.2 PSIA
 CASE =                

             REACTANT                    WT FRACTION      ENERGY      TEMP
                                          (SEE NOTE)     KJ/KG-MOL      K  
 OXIDANT     H2O2                         1.0000000   -135886.358    298.000
 FUEL        H2O                          1.0000000   -241831.038    298.000

 O/F=    4.00000  %FUEL= 20.000000  R,EQ.RATIO= 0.595473  PHI,EQ.RATIO= 0.000000

                 CHAMBER   THROAT     EXIT
 Pinf/P            1.0000   1.7896   23.238
 P, BAR            50.000   27.939   2.1516
 T, K             1663.06  1495.14   893.63
 RHO, KG/CU M    7.7956 0 4.8455 0 6.2435-1
 H, KJ/KG        -5880.68 -6234.89 -7397.77
 U, KJ/KG        -6522.06 -6811.48 -7742.38
 G, KJ/KG        -23577.5 -22144.9 -16907.0
 S, KJ/(KG)(K)    10.6411  10.6411  10.6411

 M, (1/n)          21.559   21.560   21.561
 (dLV/dLP)t      -1.00002 -1.00001 -1.00000
 (dLV/dLT)p        1.0011   1.0004   1.0000
 Cp, KJ/(KG)(K)    2.1485   2.0735   1.7856
 GAMMAs            1.2193   1.2287   1.2755
 SON VEL,M/SEC      884.3    841.7    663.0
 MACH NUMBER        0.000    1.000    2.627

 PERFORMANCE PARAMETERS

 Ae/At                      1.0000   3.7500
 CSTAR, M/SEC               1226.0   1226.0
 CF                         0.6865   1.4208
 Ivac, M/SEC                1526.7   1939.7
 Isp, M/SEC                  841.7   1741.9


 MOLE FRACTIONS

 H2O              0.74620  0.74638  0.74645
 *OH              0.00035  0.00011  0.00000
 *O2              0.25343  0.25351  0.25355

  * THERMODYNAMIC PROPERTIES FITTED TO 20000.K

    PRODUCTS WHICH WERE CONSIDERED BUT WHOSE MOLE FRACTIONS
    WERE LESS THAN 5.000000E-06 FOR ALL ASSIGNED CONDITIONS

 *H              HO2             *H2             H2O2            *O             
 O3              H2O(cr)         H2O(L)         

 NOTE. WEIGHT FRACTION OF FUEL IN TOTAL FUELS AND OF OXIDANT IN TOTAL OXIDANTS





           THEORETICAL ROCKET PERFORMANCE ASSUMING FROZEN COMPOSITION

 Pin =   725.2 PSIA
 CASE =                

             REACTANT                    WT FRACTION      ENERGY      TEMP
                                          (SEE NOTE)     KJ/KG-MOL      K  
 OXIDANT     H2O2                         1.0000000   -135886.358    298.000
 FUEL        H2O                          1.0000000   -241831.038    298.000

 O/F=    4.00000  %FUEL= 20.000000  R,EQ.RATIO= 0.595473  PHI,EQ.RATIO= 0.000000

                 CHAMBER   THROAT     EXIT
 Pinf/P            1.0000   1.7901   23.247
 P, BAR            50.000   27.931   2.1508
 T, K             1663.06  1494.21   892.62
 RHO, KG/CU M    7.7956 0 4.8469 0 6.2477-1
 H, KJ/KG        -5880.68 -6234.94 -7396.86
 U, KJ/KG        -6522.06 -6811.21 -7741.12
 G, KJ/KG        -23577.5 -22135.0 -16895.4
 S, KJ/(KG)(K)    10.6411  10.6411  10.6411

 M, (1/n)          21.559   21.559   21.559
 Cp, KJ/(KG)(K)    2.1293   2.0658   1.7851
 GAMMAs            1.2212   1.2295   1.2756
 SON VEL,M/SEC      885.0    841.8    662.7
 MACH NUMBER        0.000    1.000    2.628

 PERFORMANCE PARAMETERS

 Ae/At                      1.0000   3.7500
 CSTAR, M/SEC               1225.5   1225.5
 CF                         0.6868   1.4209
 Ivac, M/SEC                1526.4   1939.1
 Isp, M/SEC                  841.7   1741.4

 MOLE FRACTIONS

 H2O             0.74620   *OH             0.00035   *O2             0.25343

  * THERMODYNAMIC PROPERTIES FITTED TO 20000.K

    PRODUCTS WHICH WERE CONSIDERED BUT WHOSE MOLE FRACTIONS
    WERE LESS THAN 5.000000E-06 FOR ALL ASSIGNED CONDITIONS

 *H              HO2             *H2             H2O2            *O             
 O3              H2O(cr)         H2O(L)         

 NOTE. WEIGHT FRACTION OF FUEL IN TOTAL FUELS AND OF OXIDANT IN TOTAL OXIDANTS






 POINT ITN      T            H           O 
   1    2    1663.112     -13.838     -12.702
 Pinf/Pt = 1.783380
   2    3    1496.132     -14.836     -12.816
 Pinf/Pt = 1.789648
   2    2    1495.156     -14.843     -12.817
   3    4     906.558     -21.298     -13.331
   3    2     893.600     -21.535     -13.346
   3    1     893.626     -21.535     -13.346





              THEORETICAL ROCKET PERFORMANCE ASSUMING EQUILIBRIUM

           COMPOSITION DURING EXPANSION FROM INFINITE AREA COMBUSTOR

 Pin =   870.2 PSIA
 CASE =                

             REACTANT                    WT FRACTION      ENERGY      TEMP
                                          (SEE NOTE)     KJ/KG-MOL      K  
 OXIDANT     H2O2                         1.0000000   -135886.358    298.000
 FUEL        H2O                          1.0000000   -241831.038    298.000

 O/F=    4.00000  %FUEL= 20.000000  R,EQ.RATIO= 0.595473  PHI,EQ.RATIO= 0.000000

                 CHAMBER   THROAT     EXIT
 Pinf/P            1.0000   1.7896   23.239
 P, BAR            60.000   33.526   2.5819
 T, K             1663.11  1495.16   893.63
 RHO, KG/CU M    9.3545 0 5.8145 0 7.4922-1
 H, KJ/KG        -5880.68 -6234.90 -7397.78
 U, KJ/KG        -6522.08 -6811.49 -7742.39
 G, KJ/KG        -23461.1 -22039.9 -16844.1
 S, KJ/(KG)(K)    10.5708  10.5708  10.5708

 M, (1/n)          21.559   21.560   21.561
 (dLV/dLP)t      -1.00002 -1.00001 -1.00000
 (dLV/dLT)p        1.0010   1.0003   1.0000
 Cp, KJ/(KG)(K)    2.1477   2.0731   1.7856
 GAMMAs            1.2194   1.2287   1.2755
 SON VEL,M/SEC      884.4    841.7    663.0
 MACH NUMBER        0.000    1.000    2.627

 PERFORMANCE PARAMETERS

 Ae/At                     1.00000   3.7500
 CSTAR, M/SEC               1226.0   1226.0
 CF                         0.6865   1.4208
 Ivac, M/SEC                1526.7   1939.7
 Isp, M/SEC                  841.7   1741.9


 MOLE FRACTIONS

 HO2              0.00001  0.00000  0.00000
 H2O              0.74622  0.74638  0.74645
 *OH              0.00034  0.00011  0.00000
 *O2              0.25344  0.25351  0.25355

  * THERMODYNAMIC PROPERTIES FITTED TO 20000.K

    PRODUCTS WHICH WERE CONSIDERED BUT WHOSE MOLE FRACTIONS
    WERE LESS THAN 5.000000E-06 FOR ALL ASSIGNED CONDITIONS

 *H              *H2             H2O2            *O              O3             
 H2O(cr)         H2O(L)         

 NOTE. WEIGHT FRACTION OF FUEL IN TOTAL FUELS AND OF OXIDANT IN TOTAL OXIDANTS





           THEORETICAL ROCKET PERFORMANCE ASSUMING FROZEN COMPOSITION

 Pin =   870.2 PSIA
 CASE =                

             REACTANT                    WT FRACTION      ENERGY      TEMP
                                          (SEE NOTE)     KJ/KG-MOL      K  
 OXIDANT     H2O2                         1.0000000   -135886.358    298.000
 FUEL        H2O                          1.0000000   -241831.038    298.000

 O/F=    4.00000  %FUEL= 20.000000  R,EQ.RATIO= 0.595473  PHI,EQ.RATIO= 0.000000

                 CHAMBER   THROAT     EXIT
 Pinf/P            1.0000   1.7901   23.247
 P, BAR            60.000   33.518   2.5810
 T, K             1663.11  1494.26   892.66
 RHO, KG/CU M    9.3545 0 5.8162 0 7.4970-1
 H, KJ/KG        -5880.68 -6234.95 -7396.91
 U, KJ/KG        -6522.08 -6811.23 -7741.18
 G, KJ/KG        -23461.1 -22030.5 -16833.1
 S, KJ/(KG)(K)    10.5708  10.5708  10.5708

 M, (1/n)          21.559   21.559   21.559
 Cp, KJ/(KG)(K)    2.1294   2.0658   1.7851
 GAMMAs            1.2212   1.2295   1.2756
 SON VEL,M/SEC      885.0    841.8    662.7
 MACH NUMBER        0.000    1.000    2.628

 PERFORMANCE PARAMETERS

 Ae/At                      1.0000   3.7500
 CSTAR, M/SEC               1225.6   1225.6
 CF                         0.6868   1.4209
 Ivac, M/SEC                1526.4   1939.1
 Isp, M/SEC                  841.7   1741.4

 MOLE FRACTIONS

 HO2             0.00001   H2O             0.74622   *OH             0.00034
 *O2             0.25344

  * THERMODYNAMIC PROPERTIES FITTED TO 20000.K

    PRODUCTS WHICH WERE CONSIDERED BUT WHOSE MOLE FRACTIONS
    WERE LESS THAN 5.000000E-06 FOR ALL ASSIGNED CONDITIONS

 *H              *H2             H2O2            *O              O3             
 H2O(cr)         H2O(L)         

 NOTE. WEIGHT FRACTION OF FUEL IN TOTAL FUELS AND OF OXIDANT IN TOTAL OXIDANTS






 POINT ITN      T            H           O 
   1    2    1663.157     -13.799     -12.625
 Pinf/Pt = 1.783418
   2    3    1496.138     -14.798     -12.739
 Pinf/Pt = 1.789663
   2    2    1495.166     -14.804     -12.740
   3    4     906.550     -21.259     -13.254
   3    2     893.597     -21.497     -13.269
   3    1     893.622     -21.496     -13.269





              THEORETICAL ROCKET PERFORMANCE ASSUMING EQUILIBRIUM

           COMPOSITION DURING EXPANSION FROM INFINITE AREA COMBUSTOR

 Pin =  1015.3 PSIA
 CASE =                

             REACTANT                    WT FRACTION      ENERGY      TEMP
                                          (SEE NOTE)     KJ/KG-MOL      K  
 OXIDANT     H2O2                         1.0000000   -135886.358    298.000
 FUEL        H2O                          1.0000000   -241831.038    298.000

 O/F=    4.00000  %FUEL= 20.000000  R,EQ.RATIO= 0.595473  PHI,EQ.RATIO= 0.000000

                 CHAMBER   THROAT     EXIT
 Pinf/P            1.0000   1.7897   23.239
 P, BAR            70.000   39.114   3.0122
 T, K             1663.16  1495.17   893.62
 RHO, KG/CU M    1.0913 1 6.7835 0 8.7409-1
 H, KJ/KG        -5880.68 -6234.91 -7397.79
 U, KJ/KG        -6522.10 -6811.51 -7742.39
 G, KJ/KG        -23362.7 -21951.1 -16791.0
 S, KJ/(KG)(K)    10.5114  10.5114  10.5114

 M, (1/n)          21.559   21.560   21.561
 (dLV/dLP)t      -1.00002 -1.00001 -1.00000
 (dLV/dLT)p        1.0010   1.0003   1.0000
 Cp, KJ/(KG)(K)    2.1470   2.0729   1.7856
 GAMMAs            1.2194   1.2287   1.2755
 SON VEL,M/SEC      884.4    841.7    663.0
 MACH NUMBER        0.000    1.000    2.627

 PERFORMANCE PARAMETERS

 Ae/At                      1.0000   3.7500
 CSTAR, M/SEC               1226.0   1226.0
 CF                         0.6865   1.4208
 Ivac, M/SEC                1526.7   1939.7
 Isp, M/SEC                  841.7   1741.9


 MOLE FRACTIONS

 HO2              0.00001  0.00000  0.00000
 H2O              0.74622  0.74638  0.74645
 *OH              0.00032  0.00010  0.00000
 *O2              0.25344  0.25351  0.25355

  * THERMODYNAMIC PROPERTIES FITTED TO 20000.K

    PRODUCTS WHICH WERE CONSIDERED BUT WHOSE MOLE FRACTIONS
    WERE LESS THAN 5.000000E-06 FOR ALL ASSIGNED CONDITIONS

 *H              *H2             H2O2            *O              O3             
 H2O(cr)         H2O(L)         

 NOTE. WEIGHT FRACTION OF FUEL IN TOTAL FUELS AND OF OXIDANT IN TOTAL OXIDANTS





           THEORETICAL ROCKET PERFORMANCE ASSUMING FROZEN COMPOSITION

 Pin =  1015.3 PSIA
 CASE =                

             REACTANT                    WT FRACTION      ENERGY      TEMP
                                          (SEE NOTE)     KJ/KG-MOL      K  
 OXIDANT     H2O2                         1.0000000   -135886.358    298.000
 FUEL        H2O                          1.0000000   -241831.038    298.000

 O/F=    4.00000  %FUEL= 20.000000  R,EQ.RATIO= 0.595473  PHI,EQ.RATIO= 0.000000

                 CHAMBER   THROAT     EXIT
 Pinf/P            1.0000   1.7901   23.247
 P, BAR            70.000   39.104   3.0112
 T, K             1663.16  1494.31   892.69
 RHO, KG/CU M    1.0913 1 6.7854 0 8.7463-1
 H, KJ/KG        -5880.68 -6234.96 -7396.95
 U, KJ/KG        -6522.10 -6811.26 -7741.23
 G, KJ/KG        -23362.7 -21942.1 -16780.4
 S, KJ/(KG)(K)    10.5114  10.5114  10.5114

 M, (1/n)          21.559   21.559   21.559
 Cp, KJ/(KG)(K)    2.1294   2.0658   1.7851
 GAMMAs            1.2212   1.2295   1.2756
 SON VEL,M/SEC      885.0    841.8    662.7
 MACH NUMBER        0.000    1.000    2.628

 PERFORMANCE PARAMETERS

 Ae/At                     1.00000   3.7500
 CSTAR, M/SEC               1225.6   1225.6
 CF                         0.6868   1.4209
 Ivac, M/SEC                1526.4   1939.1
 Isp, M/SEC                  841.8   1741.4

 MOLE FRACTIONS

 HO2             0.00001   H2O             0.74622   *OH             0.00032
 *O2             0.25344

  * THERMODYNAMIC PROPERTIES FITTED TO 20000.K

    PRODUCTS WHICH WERE CONSIDERED BUT WHOSE MOLE FRACTIONS
    WERE LESS THAN 5.000000E-06 FOR ALL ASSIGNED CONDITIONS

 *H              *H2             H2O2            *O              O3             
 H2O(cr)         H2O(L)         

 NOTE. WEIGHT FRACTION OF FUEL IN TOTAL FUELS AND OF OXIDANT IN TOTAL OXIDANTS






 POINT ITN      T            H           O 
   1    2    1663.194     -13.765     -12.558
 Pinf/Pt = 1.783450
   2    3    1496.144     -14.764     -12.672
 Pinf/Pt = 1.789675
   2    2    1495.174     -14.771     -12.673
   3    4     906.543     -21.226     -13.187
   3    2     893.594     -21.463     -13.202
   3    1     893.619     -21.463     -13.202





              THEORETICAL ROCKET PERFORMANCE ASSUMING EQUILIBRIUM

           COMPOSITION DURING EXPANSION FROM INFINITE AREA COMBUSTOR

 Pin =  1160.3 PSIA
 CASE =                

             REACTANT                    WT FRACTION      ENERGY      TEMP
                                          (SEE NOTE)     KJ/KG-MOL      K  
 OXIDANT     H2O2                         1.0000000   -135886.358    298.000
 FUEL        H2O                          1.0000000   -241831.038    298.000

 O/F=    4.00000  %FUEL= 20.000000  R,EQ.RATIO= 0.595473  PHI,EQ.RATIO= 0.000000

                 CHAMBER   THROAT     EXIT
 Pinf/P            1.0000   1.7897   23.239
 P, BAR            80.000   44.701   3.4425
 T, K             1663.19  1495.17   893.62
 RHO, KG/CU M    1.2472 1 7.7525 0 9.9896-1
 H, KJ/KG        -5880.68 -6234.92 -7397.79
 U, KJ/KG        -6522.11 -6811.52 -7742.40
 G, KJ/KG        -23277.5 -21874.2 -16744.9
 S, KJ/(KG)(K)    10.4599  10.4599  10.4599

 M, (1/n)          21.559   21.560   21.561
 (dLV/dLP)t      -1.00002 -1.00001 -1.00000
 (dLV/dLT)p        1.0009   1.0003   1.0000
 Cp, KJ/(KG)(K)    2.1465   2.0727   1.7856
 GAMMAs            1.2195   1.2288   1.2755
 SON VEL,M/SEC      884.4    841.7    663.0
 MACH NUMBER        0.000    1.000    2.627

 PERFORMANCE PARAMETERS

 Ae/At                      1.0000   3.7500
 CSTAR, M/SEC               1226.0   1226.0
 CF                         0.6866   1.4208
 Ivac, M/SEC                1526.7   1939.7
 Isp, M/SEC                  841.7   1741.9


 MOLE FRACTIONS

 HO2              0.00001  0.00000  0.00000
 H2O              0.74623  0.74638  0.74645
 *OH              0.00031  0.00010  0.00000
 *O2              0.25344  0.25351  0.25355

  * THERMODYNAMIC PROPERTIES FITTED TO 20000.K

    PRODUCTS WHICH WERE CONSIDERED BUT WHOSE MOLE FRACTIONS
    WERE LESS THAN 5.000000E-06 FOR ALL ASSIGNED CONDITIONS

 *H              *H2             H2O2            *O              O3             
 H2O(cr)         H2O(L)         

 NOTE. WEIGHT FRACTION OF FUEL IN TOTAL FUELS AND OF OXIDANT IN TOTAL OXIDANTS





           THEORETICAL ROCKET PERFORMANCE ASSUMING FROZEN COMPOSITION

 Pin =  1160.3 PSIA
 CASE =                

             REACTANT                    WT FRACTION      ENERGY      TEMP
                                          (SEE NOTE)     KJ/KG-MOL      K  
 OXIDANT     H2O2                         1.0000000   -135886.358    298.000
 FUEL        H2O                          1.0000000   -241831.038    298.000

 O/F=    4.00000  %FUEL= 20.000000  R,EQ.RATIO= 0.595473  PHI,EQ.RATIO= 0.000000

                 CHAMBER   THROAT     EXIT
 Pinf/P            1.0000   1.7901   23.247
 P, BAR            80.000   44.690   3.4414
 T, K             1663.19  1494.34   892.72
 RHO, KG/CU M    1.2472 1 7.7545 0 9.9956-1
 H, KJ/KG        -5880.68 -6234.96 -7396.98
 U, KJ/KG        -6522.11 -6811.27 -7741.27
 G, KJ/KG        -23277.5 -21865.6 -16734.7
 S, KJ/(KG)(K)    10.4599  10.4599  10.4599

 M, (1/n)          21.559   21.559   21.559
 Cp, KJ/(KG)(K)    2.1294   2.0658   1.7851
 GAMMAs            1.2212   1.2295   1.2756
 SON VEL,M/SEC      885.0    841.8    662.7
 MACH NUMBER        0.000    1.000    2.628

 PERFORMANCE PARAMETERS

 Ae/At                      1.0000   3.7500
 CSTAR, M/SEC               1225.6   1225.6
 CF                         0.6868   1.4209
 Ivac, M/SEC                1526.4   1939.1
 Isp, M/SEC                  841.8   1741.4

 MOLE FRACTIONS

 HO2             0.00001   H2O             0.74623   *OH             0.00031
 *O2             0.25344

  * THERMODYNAMIC PROPERTIES FITTED TO 20000.K

    PRODUCTS WHICH WERE CONSIDERED BUT WHOSE MOLE FRACTIONS
    WERE LESS THAN 5.000000E-06 FOR ALL ASSIGNED CONDITIONS

 *H              *H2             H2O2            *O              O3             
 H2O(cr)         H2O(L)         

 NOTE. WEIGHT FRACTION OF FUEL IN TOTAL FUELS AND OF OXIDANT IN TOTAL OXIDANTS






 O/F =   4.500000

                       EFFECTIVE FUEL     EFFECTIVE OXIDANT        MIXTURE
 ENTHALPY                  h(2)/R              h(1)/R               h0/R
 (KG-MOL)(K)/KG       -0.16144863E+04     -0.48047723E+03     -0.68666070E+03

 KG-FORM.WT./KG             bi(2)               bi(1)               b0i
  *H                   0.11101687E+00      0.58798142E-01      0.68292457E-01
  *O                   0.55508435E-01      0.58798142E-01      0.58200014E-01

 POINT ITN      T            H           O 
   1    3    1695.301     -14.154     -13.617
 Pinf/Pt = 1.781885
   2    3    1526.660     -15.124     -13.731
 Pinf/Pt = 1.788551
   2    2    1525.607     -15.130     -13.732
 Pinf/Pt = 1.788592
   2    1    1525.601     -15.131     -13.732
   3    4     927.743     -21.409     -14.242
   3    2     914.791     -21.636     -14.257
   3    1     914.816     -21.636     -14.257





              THEORETICAL ROCKET PERFORMANCE ASSUMING EQUILIBRIUM

           COMPOSITION DURING EXPANSION FROM INFINITE AREA COMBUSTOR

 Pin =   145.0 PSIA
 CASE =                

             REACTANT                    WT FRACTION      ENERGY      TEMP
                                          (SEE NOTE)     KJ/KG-MOL      K  
 OXIDANT     H2O2                         1.0000000   -135886.358    298.000
 FUEL        H2O                          1.0000000   -241831.038    298.000

 O/F=    4.50000  %FUEL= 18.181818  R,EQ.RATIO= 0.586705  PHI,EQ.RATIO= 0.000000

                 CHAMBER   THROAT     EXIT
 Pinf/P            1.0000   1.7886   23.167
 P, BAR            10.000   5.5910  0.43164
 T, K             1695.30  1525.60   914.82
 RHO, KG/CU M    1.5362 0 9.5455-1 1.2290-1
 H, KJ/KG        -5709.25 -6068.55 -7250.45
 U, KJ/KG        -6360.20 -6654.27 -7601.65
 G, KJ/KG        -24795.7 -23244.5 -17549.9
 S, KJ/(KG)(K)    11.2585  11.2585  11.2585

 M, (1/n)          21.654   21.656   21.658
 (dLV/dLP)t      -1.00005 -1.00001 -1.00000
 (dLV/dLT)p        1.0020   1.0007   1.0000
 Cp, KJ/(KG)(K)    2.1621   2.0790   1.7865
 GAMMAs            1.2169   1.2269   1.2737
 SON VEL,M/SEC      890.0    847.7    668.8
 MACH NUMBER        0.000    1.000    2.625

 PERFORMANCE PARAMETERS

 Ae/At                      1.0000   3.7500
 CSTAR, M/SEC               1235.8   1235.8
 CF                         0.6859   1.4206
 Ivac, M/SEC                1538.7   1955.7
 Isp, M/SEC                  847.7   1755.7


 MOLE FRACTIONS

 *H2              0.00001  0.00000  0.00000
 H2O              0.73906  0.73938  0.73953
 *O               0.00001  0.00000  0.00000
 *OH              0.00066  0.00021  0.00000
 *O2              0.26026  0.26041  0.26047

  * THERMODYNAMIC PROPERTIES FITTED TO 20000.K

    PRODUCTS WHICH WERE CONSIDERED BUT WHOSE MOLE FRACTIONS
    WERE LESS THAN 5.000000E-06 FOR ALL ASSIGNED CONDITIONS

 *H              HO2             H2O2            O3              H2O(cr)        
 H2O(L)         

 NOTE. WEIGHT FRACTION OF FUEL IN TOTAL FUELS AND OF OXIDANT IN TOTAL OXIDANTS





           THEORETICAL ROCKET PERFORMANCE ASSUMING FROZEN COMPOSITION

 Pin =   145.0 PSIA
 CASE =                

             REACTANT                    WT FRACTION      ENERGY      TEMP
                                          (SEE NOTE)     KJ/KG-MOL      K  
 OXIDANT     H2O2                         1.0000000   -135886.358    298.000
 FUEL        H2O                          1.0000000   -241831.038    298.000

 O/F=    4.50000  %FUEL= 18.181818  R,EQ.RATIO= 0.586705  PHI,EQ.RATIO= 0.000000

                 CHAMBER   THROAT     EXIT
 Pinf/P            1.0000   1.7894   23.184
 P, BAR            10.000   5.5884  0.43134
 T, K             1695.30  1523.88   912.91
 RHO, KG/CU M    1.5362 0 9.5507-1 1.2305-1
 H, KJ/KG        -5709.25 -6068.64 -7248.77
 U, KJ/KG        -6360.20 -6653.76 -7599.31
 G, KJ/KG        -24795.7 -23225.2 -17526.7
 S, KJ/(KG)(K)    11.2585  11.2585  11.2585

 M, (1/n)          21.654   21.654   21.654
 Cp, KJ/(KG)(K)    2.1272   2.0647   1.7856
 GAMMAs            1.2203   1.2285   1.2739
 SON VEL,M/SEC      891.3    847.8    668.2
 MACH NUMBER        0.000    1.000    2.626

 PERFORMANCE PARAMETERS

 Ae/At                      1.0000   3.7500
 CSTAR, M/SEC               1235.0   1235.0
 CF                         0.6865   1.4208
 Ivac, M/SEC                1538.0   1954.5
 Isp, M/SEC                  847.8   1754.7

 MOLE FRACTIONS

 *H2             0.00001   H2O             0.73906   *O              0.00001
 *OH             0.00066   *O2             0.26026

  * THERMODYNAMIC PROPERTIES FITTED TO 20000.K

    PRODUCTS WHICH WERE CONSIDERED BUT WHOSE MOLE FRACTIONS
    WERE LESS THAN 5.000000E-06 FOR ALL ASSIGNED CONDITIONS

 *H              HO2             H2O2            O3              H2O(cr)        
 H2O(L)         

 NOTE. WEIGHT FRACTION OF FUEL IN TOTAL FUELS AND OF OXIDANT IN TOTAL OXIDANTS






 POINT ITN      T            H           O 
   1    2    1695.683     -13.979     -13.271
 Pinf/Pt = 1.782194
   2    3    1526.717     -14.950     -13.385
 Pinf/Pt = 1.788676
   2    2    1525.692     -14.957     -13.385
   3    4     927.676     -21.237     -13.896
   3    2     914.759     -21.463     -13.910
   3    1     914.784     -21.463     -13.910





              THEORETICAL ROCKET PERFORMANCE ASSUMING EQUILIBRIUM

           COMPOSITION DURING EXPANSION FROM INFINITE AREA COMBUSTOR

 Pin =   290.1 PSIA
 CASE =                

             REACTANT                    WT FRACTION      ENERGY      TEMP
                                          (SEE NOTE)     KJ/KG-MOL      K  
 OXIDANT     H2O2                         1.0000000   -135886.358    298.000
 FUEL        H2O                          1.0000000   -241831.038    298.000

 O/F=    4.50000  %FUEL= 18.181818  R,EQ.RATIO= 0.586705  PHI,EQ.RATIO= 0.000000

                 CHAMBER   THROAT     EXIT
 Pinf/P            1.0000   1.7887   23.168
 P, BAR            20.000   11.181  0.86324
 T, K             1695.68  1525.69   914.78
 RHO, KG/CU M    3.0718 0 1.9089 0 2.4580-1
 H, KJ/KG        -5709.25 -6068.62 -7250.50
 U, KJ/KG        -6360.32 -6654.37 -7601.70
 G, KJ/KG        -24348.7 -22839.5 -17306.1
 S, KJ/(KG)(K)    10.9923  10.9923  10.9923

 M, (1/n)          21.655   21.657   21.658
 (dLV/dLP)t      -1.00004 -1.00001 -1.00000
 (dLV/dLT)p        1.0017   1.0006   1.0000
 Cp, KJ/(KG)(K)    2.1566   2.0768   1.7865
 GAMMAs            1.2174   1.2271   1.2737
 SON VEL,M/SEC      890.3    847.8    668.8
 MACH NUMBER        0.000    1.000    2.625

 PERFORMANCE PARAMETERS

 Ae/At                      1.0000   3.7500
 CSTAR, M/SEC               1235.8   1235.8
 CF                         0.6860   1.4207
 Ivac, M/SEC                1538.7   1955.7
 Isp, M/SEC                  847.8   1755.7


 MOLE FRACTIONS

 *H2              0.00001  0.00000  0.00000
 H2O              0.73913  0.73940  0.73953
 *OH              0.00055  0.00018  0.00000
 *O2              0.26029  0.26042  0.26047

  * THERMODYNAMIC PROPERTIES FITTED TO 20000.K

    PRODUCTS WHICH WERE CONSIDERED BUT WHOSE MOLE FRACTIONS
    WERE LESS THAN 5.000000E-06 FOR ALL ASSIGNED CONDITIONS

 *H              HO2             H2O2            *O              O3             
 H2O(cr)         H2O(L)         

 NOTE. WEIGHT FRACTION OF FUEL IN TOTAL FUELS AND OF OXIDANT IN TOTAL OXIDANTS





           THEORETICAL ROCKET PERFORMANCE ASSUMING FROZEN COMPOSITION

 Pin =   290.1 PSIA
 CASE =                

             REACTANT                    WT FRACTION      ENERGY      TEMP
                                          (SEE NOTE)     KJ/KG-MOL      K  
 OXIDANT     H2O2                         1.0000000   -135886.358    298.000
 FUEL        H2O                          1.0000000   -241831.038    298.000

 O/F=    4.50000  %FUEL= 18.181818  R,EQ.RATIO= 0.586705  PHI,EQ.RATIO= 0.000000

                 CHAMBER   THROAT     EXIT
 Pinf/P            1.0000   1.7894   23.182
 P, BAR            20.000   11.177  0.86273
 T, K             1695.68  1524.24   913.18
 RHO, KG/CU M    3.0718 0 1.9098 0 2.4605-1
 H, KJ/KG        -5709.25 -6068.70 -7249.10
 U, KJ/KG        -6360.32 -6653.95 -7599.72
 G, KJ/KG        -24348.7 -22823.6 -17287.1
 S, KJ/(KG)(K)    10.9923  10.9923  10.9923

 M, (1/n)          21.655   21.655   21.655
 Cp, KJ/(KG)(K)    2.1273   2.0648   1.7857
 GAMMAs            1.2202   1.2284   1.2739
 SON VEL,M/SEC      891.3    847.9    668.3
 MACH NUMBER        0.000    1.000    2.626

 PERFORMANCE PARAMETERS

 Ae/At                      1.0000   3.7500
 CSTAR, M/SEC               1235.1   1235.1
 CF                         0.6865   1.4208
 Ivac, M/SEC                1538.1   1954.7
 Isp, M/SEC                  847.9   1754.9

 MOLE FRACTIONS

 *H2             0.00001   H2O             0.73913   *OH             0.00055
 *O2             0.26029

  * THERMODYNAMIC PROPERTIES FITTED TO 20000.K

    PRODUCTS WHICH WERE CONSIDERED BUT WHOSE MOLE FRACTIONS
    WERE LESS THAN 5.000000E-06 FOR ALL ASSIGNED CONDITIONS

 *H              HO2             H2O2            *O              O3             
 H2O(cr)         H2O(L)         

 NOTE. WEIGHT FRACTION OF FUEL IN TOTAL FUELS AND OF OXIDANT IN TOTAL OXIDANTS






 POINT ITN      T            H           O 
   1    2    1695.877     -13.877     -13.068
 Pinf/Pt = 1.782350
   2    3    1526.746     -14.849     -13.182
 Pinf/Pt = 1.788739
   2    2    1525.736     -14.855     -13.183
   3    4     927.642     -21.136     -13.693
   3    2     914.743     -21.362     -13.708
   3    1     914.768     -21.362     -13.708





              THEORETICAL ROCKET PERFORMANCE ASSUMING EQUILIBRIUM

           COMPOSITION DURING EXPANSION FROM INFINITE AREA COMBUSTOR

 Pin =   435.1 PSIA
 CASE =                

             REACTANT                    WT FRACTION      ENERGY      TEMP
                                          (SEE NOTE)     KJ/KG-MOL      K  
 OXIDANT     H2O2                         1.0000000   -135886.358    298.000
 FUEL        H2O                          1.0000000   -241831.038    298.000

 O/F=    4.50000  %FUEL= 18.181818  R,EQ.RATIO= 0.586705  PHI,EQ.RATIO= 0.000000

                 CHAMBER   THROAT     EXIT
 Pinf/P            1.0000   1.7887   23.169
 P, BAR            30.000   16.772   1.2948
 T, K             1695.88  1525.74   914.77
 RHO, KG/CU M    4.6073 0 2.8632 0 3.6870-1
 H, KJ/KG        -5709.25 -6068.66 -7250.53
 U, KJ/KG        -6360.39 -6654.42 -7601.72
 G, KJ/KG        -24086.9 -22602.5 -17163.5
 S, KJ/(KG)(K)    10.8366  10.8366  10.8366

 M, (1/n)          21.655   21.657   21.658
 (dLV/dLP)t      -1.00003 -1.00001 -1.00000
 (dLV/dLT)p        1.0015   1.0005   1.0000
 Cp, KJ/(KG)(K)    2.1538   2.0757   1.7865
 GAMMAs            1.2177   1.2272   1.2737
 SON VEL,M/SEC      890.4    847.9    668.8
 MACH NUMBER        0.000    1.000    2.625

 PERFORMANCE PARAMETERS

 Ae/At                      1.0000   3.7500
 CSTAR, M/SEC               1235.8   1235.8
 CF                         0.6860   1.4207
 Ivac, M/SEC                1538.7   1955.7
 Isp, M/SEC                  847.8   1755.7


 MOLE FRACTIONS

 HO2              0.00001  0.00000  0.00000
 *H2              0.00001  0.00000  0.00000
 H2O              0.73917  0.73941  0.73953
 *OH              0.00050  0.00016  0.00000
 *O2              0.26031  0.26042  0.26047

  * THERMODYNAMIC PROPERTIES FITTED TO 20000.K

    PRODUCTS WHICH WERE CONSIDERED BUT WHOSE MOLE FRACTIONS
    WERE LESS THAN 5.000000E-06 FOR ALL ASSIGNED CONDITIONS

 *H              H2O2            *O              O3              H2O(cr)        
 H2O(L)         

 NOTE. WEIGHT FRACTION OF FUEL IN TOTAL FUELS AND OF OXIDANT IN TOTAL OXIDANTS





           THEORETICAL ROCKET PERFORMANCE ASSUMING FROZEN COMPOSITION

 Pin =   435.1 PSIA
 CASE =                

             REACTANT                    WT FRACTION      ENERGY      TEMP
                                          (SEE NOTE)     KJ/KG-MOL      K  
 OXIDANT     H2O2                         1.0000000   -135886.358    298.000
 FUEL        H2O                          1.0000000   -241831.038    298.000

 O/F=    4.50000  %FUEL= 18.181818  R,EQ.RATIO= 0.586705  PHI,EQ.RATIO= 0.000000

                 CHAMBER   THROAT     EXIT
 Pinf/P            1.0000   1.7894   23.181
 P, BAR            30.000   16.765   1.2941
 T, K             1695.88  1524.42   913.32
 RHO, KG/CU M    4.6073 0 2.8643 0 3.6904-1
 H, KJ/KG        -5709.25 -6068.74 -7249.26
 U, KJ/KG        -6360.39 -6654.05 -7599.93
 G, KJ/KG        -24086.9 -22588.4 -17146.6
 S, KJ/(KG)(K)    10.8366  10.8366  10.8366

 M, (1/n)          21.655   21.655   21.655
 Cp, KJ/(KG)(K)    2.1274   2.0649   1.7858
 GAMMAs            1.2202   1.2284   1.2739
 SON VEL,M/SEC      891.4    847.9    668.4
 MACH NUMBER        0.000    1.000    2.626

 PERFORMANCE PARAMETERS

 Ae/At                      1.0000   3.7500
 CSTAR, M/SEC               1235.2   1235.2
 CF                         0.6865   1.4208
 Ivac, M/SEC                1538.2   1954.8
 Isp, M/SEC                  847.9   1755.0

 MOLE FRACTIONS

 HO2             0.00001   *H2             0.00001   H2O             0.73917
 *OH             0.00050   *O2             0.26031

  * THERMODYNAMIC PROPERTIES FITTED TO 20000.K

    PRODUCTS WHICH WERE CONSIDERED BUT WHOSE MOLE FRACTIONS
    WERE LESS THAN 5.000000E-06 FOR ALL ASSIGNED CONDITIONS

 *H              H2O2            *O              O3              H2O(cr)        
 H2O(L)         

 NOTE. WEIGHT FRACTION OF FUEL IN TOTAL FUELS AND OF OXIDANT IN TOTAL OXIDANTS






 POINT ITN      T            H           O 
   1    2    1696.002     -13.804     -12.925
 Pinf/Pt = 1.782451
   2    3    1526.765     -14.777     -13.038
 Pinf/Pt = 1.788780
   2    2    1525.763     -14.783     -13.039
   3    4     927.621     -21.065     -13.549
   3    2     914.733     -21.290     -13.564
   3    1     914.758     -21.290     -13.564





              THEORETICAL ROCKET PERFORMANCE ASSUMING EQUILIBRIUM

           COMPOSITION DURING EXPANSION FROM INFINITE AREA COMBUSTOR

 Pin =   580.2 PSIA
 CASE =                

             REACTANT                    WT FRACTION      ENERGY      TEMP
                                          (SEE NOTE)     KJ/KG-MOL      K  
 OXIDANT     H2O2                         1.0000000   -135886.358    298.000
 FUEL        H2O                          1.0000000   -241831.038    298.000

 O/F=    4.50000  %FUEL= 18.181818  R,EQ.RATIO= 0.586705  PHI,EQ.RATIO= 0.000000

                 CHAMBER   THROAT     EXIT
 Pinf/P            1.0000   1.7888   23.169
 P, BAR            40.000   22.362   1.7264
 T, K             1696.00  1525.76   914.76
 RHO, KG/CU M    6.1427 0 3.8175 0 4.9160-1
 H, KJ/KG        -5709.25 -6068.69 -7250.55
 U, KJ/KG        -6360.43 -6654.46 -7601.73
 G, KJ/KG        -23900.9 -22434.3 -17062.4
 S, KJ/(KG)(K)    10.7262  10.7262  10.7262

 M, (1/n)          21.655   21.657   21.658
 (dLV/dLP)t      -1.00003 -1.00001 -1.00000
 (dLV/dLT)p        1.0014   1.0005   1.0000
 Cp, KJ/(KG)(K)    2.1520   2.0750   1.7865
 GAMMAs            1.2179   1.2273   1.2737
 SON VEL,M/SEC      890.5    847.9    668.8
 MACH NUMBER        0.000    1.000    2.625

 PERFORMANCE PARAMETERS

 Ae/At                      1.0000   3.7500
 CSTAR, M/SEC               1235.8   1235.8
 CF                         0.6861   1.4207
 Ivac, M/SEC                1538.7   1955.8
 Isp, M/SEC                  847.9   1755.7


 MOLE FRACTIONS

 HO2              0.00001  0.00000  0.00000
 H2O              0.73920  0.73942  0.73953
 *OH              0.00047  0.00015  0.00000
 *O2              0.26032  0.26042  0.26047

  * THERMODYNAMIC PROPERTIES FITTED TO 20000.K

    PRODUCTS WHICH WERE CONSIDERED BUT WHOSE MOLE FRACTIONS
    WERE LESS THAN 5.000000E-06 FOR ALL ASSIGNED CONDITIONS

 *H              *H2             H2O2            *O              O3             
 H2O(cr)         H2O(L)         

 NOTE. WEIGHT FRACTION OF FUEL IN TOTAL FUELS AND OF OXIDANT IN TOTAL OXIDANTS





           THEORETICAL ROCKET PERFORMANCE ASSUMING FROZEN COMPOSITION

 Pin =   580.2 PSIA
 CASE =                

             REACTANT                    WT FRACTION      ENERGY      TEMP
                                          (SEE NOTE)     KJ/KG-MOL      K  
 OXIDANT     H2O2                         1.0000000   -135886.358    298.000
 FUEL        H2O                          1.0000000   -241831.038    298.000

 O/F=    4.50000  %FUEL= 18.181818  R,EQ.RATIO= 0.586705  PHI,EQ.RATIO= 0.000000

                 CHAMBER   THROAT     EXIT
 Pinf/P            1.0000   1.7894   23.181
 P, BAR            40.000   22.354   1.7256
 T, K             1696.00  1524.54   913.41
 RHO, KG/CU M    6.1427 0 3.8189 0 4.9202-1
 H, KJ/KG        -5709.25 -6068.76 -7249.37
 U, KJ/KG        -6360.43 -6654.11 -7600.07
 G, KJ/KG        -23900.9 -22421.3 -17046.8
 S, KJ/(KG)(K)    10.7262  10.7262  10.7262

 M, (1/n)          21.655   21.655   21.655
 Cp, KJ/(KG)(K)    2.1274   2.0649   1.7859
 GAMMAs            1.2202   1.2284   1.2739
 SON VEL,M/SEC      891.4    848.0    668.4
 MACH NUMBER        0.000    1.000    2.626

 PERFORMANCE PARAMETERS

 Ae/At                      1.0000   3.7500
 CSTAR, M/SEC               1235.2   1235.2
 CF                         0.6865   1.4208
 Ivac, M/SEC                1538.3   1954.9
 Isp, M/SEC                  848.0   1755.1

 MOLE FRACTIONS

 HO2             0.00001   H2O             0.73920   *OH             0.00047
 *O2             0.26032

  * THERMODYNAMIC PROPERTIES FITTED TO 20000.K

    PRODUCTS WHICH WERE CONSIDERED BUT WHOSE MOLE FRACTIONS
    WERE LESS THAN 5.000000E-06 FOR ALL ASSIGNED CONDITIONS

 *H              *H2             H2O2            *O              O3             
 H2O(cr)         H2O(L)         

 NOTE. WEIGHT FRACTION OF FUEL IN TOTAL FUELS AND OF OXIDANT IN TOTAL OXIDANTS






 POINT ITN      T            H           O 
   1    2    1696.093     -13.748     -12.813
 Pinf/Pt = 1.782524
   2    3    1526.778     -14.721     -12.927
 Pinf/Pt = 1.788809
   2    2    1525.784     -14.727     -12.927
   3    4     927.605     -21.009     -13.438
   3    2     914.726     -21.235     -13.452
   3    1     914.750     -21.234     -13.452





              THEORETICAL ROCKET PERFORMANCE ASSUMING EQUILIBRIUM

           COMPOSITION DURING EXPANSION FROM INFINITE AREA COMBUSTOR

 Pin =   725.2 PSIA
 CASE =                

             REACTANT                    WT FRACTION      ENERGY      TEMP
                                          (SEE NOTE)     KJ/KG-MOL      K  
 OXIDANT     H2O2                         1.0000000   -135886.358    298.000
 FUEL        H2O                          1.0000000   -241831.038    298.000

 O/F=    4.50000  %FUEL= 18.181818  R,EQ.RATIO= 0.586705  PHI,EQ.RATIO= 0.000000

                 CHAMBER   THROAT     EXIT
 Pinf/P            1.0000   1.7888   23.170
 P, BAR            50.000   27.952   2.1580
 T, K             1696.09  1525.78   914.75
 RHO, KG/CU M    7.6780 0 4.7717 0 6.1450-1
 H, KJ/KG        -5709.25 -6068.71 -7250.56
 U, KJ/KG        -6360.46 -6654.49 -7601.74
 G, KJ/KG        -23756.5 -22303.8 -16984.0
 S, KJ/(KG)(K)    10.6405  10.6405  10.6405

 M, (1/n)          21.655   21.657   21.658
 (dLV/dLP)t      -1.00003 -1.00001 -1.00000
 (dLV/dLT)p        1.0013   1.0005   1.0000
 Cp, KJ/(KG)(K)    2.1506   2.0745   1.7865
 GAMMAs            1.2180   1.2273   1.2737
 SON VEL,M/SEC      890.6    847.9    668.8
 MACH NUMBER        0.000    1.000    2.625

 PERFORMANCE PARAMETERS

 Ae/At                     1.00000   3.7500
 CSTAR, M/SEC               1235.8   1235.8
 CF                         0.6861   1.4207
 Ivac, M/SEC                1538.8   1955.8
 Isp, M/SEC                  847.9   1755.7


 MOLE FRACTIONS

 HO2              0.00001  0.00000  0.00000
 H2O              0.73921  0.73943  0.73953
 *OH              0.00044  0.00014  0.00000
 *O2              0.26033  0.26043  0.26047

  * THERMODYNAMIC PROPERTIES FITTED TO 20000.K

    PRODUCTS WHICH WERE CONSIDERED BUT WHOSE MOLE FRACTIONS
    WERE LESS THAN 5.000000E-06 FOR ALL ASSIGNED CONDITIONS

 *H              *H2             H2O2            *O              O3             
 H2O(cr)         H2O(L)         

 NOTE. WEIGHT FRACTION OF FUEL IN TOTAL FUELS AND OF OXIDANT IN TOTAL OXIDANTS





           THEORETICAL ROCKET PERFORMANCE ASSUMING FROZEN COMPOSITION

 Pin =   725.2 PSIA
 CASE =                

             REACTANT                    WT FRACTION      ENERGY      TEMP
                                          (SEE NOTE)     KJ/KG-MOL      K  
 OXIDANT     H2O2                         1.0000000   -135886.358    298.000
 FUEL        H2O                          1.0000000   -241831.038    298.000

 O/F=    4.50000  %FUEL= 18.181818  R,EQ.RATIO= 0.586705  PHI,EQ.RATIO= 0.000000

                 CHAMBER   THROAT     EXIT
 Pinf/P            1.0000   1.7894   23.181
 P, BAR            50.000   27.942   2.1570
 T, K             1696.09  1524.63   913.48
 RHO, KG/CU M    7.6780 0 4.7734 0 6.1500-1
 H, KJ/KG        -5709.25 -6068.78 -7249.44
 U, KJ/KG        -6360.46 -6654.16 -7600.17
 G, KJ/KG        -23756.5 -22291.6 -16969.3
 S, KJ/(KG)(K)    10.6405  10.6405  10.6405

 M, (1/n)          21.655   21.655   21.655
 Cp, KJ/(KG)(K)    2.1275   2.0649   1.7859
 GAMMAs            1.2202   1.2284   1.2739
 SON VEL,M/SEC      891.4    848.0    668.4
 MACH NUMBER        0.000    1.000    2.626

 PERFORMANCE PARAMETERS

 Ae/At                      1.0000   3.7500
 CSTAR, M/SEC               1235.3   1235.3
 CF                         0.6865   1.4208
 Ivac, M/SEC                1538.3   1954.9
 Isp, M/SEC                  848.0   1755.1

 MOLE FRACTIONS

 HO2             0.00001   H2O             0.73921   *OH             0.00044
 *O2             0.26033

  * THERMODYNAMIC PROPERTIES FITTED TO 20000.K

    PRODUCTS WHICH WERE CONSIDERED BUT WHOSE MOLE FRACTIONS
    WERE LESS THAN 5.000000E-06 FOR ALL ASSIGNED CONDITIONS

 *H              *H2             H2O2            *O              O3             
 H2O(cr)         H2O(L)         

 NOTE. WEIGHT FRACTION OF FUEL IN TOTAL FUELS AND OF OXIDANT IN TOTAL OXIDANTS






 POINT ITN      T            H           O 
   1    2    1696.163     -13.702     -12.722
 Pinf/Pt = 1.782581
   2    3    1526.789     -14.675     -12.835
 Pinf/Pt = 1.788832
   2    2    1525.799     -14.682     -12.836
   3    4     927.593     -20.964     -13.347
   3    2     914.720     -21.189     -13.361
   3    1     914.745     -21.189     -13.361





              THEORETICAL ROCKET PERFORMANCE ASSUMING EQUILIBRIUM

           COMPOSITION DURING EXPANSION FROM INFINITE AREA COMBUSTOR

 Pin =   870.2 PSIA
 CASE =                

             REACTANT                    WT FRACTION      ENERGY      TEMP
                                          (SEE NOTE)     KJ/KG-MOL      K  
 OXIDANT     H2O2                         1.0000000   -135886.358    298.000
 FUEL        H2O                          1.0000000   -241831.038    298.000

 O/F=    4.50000  %FUEL= 18.181818  R,EQ.RATIO= 0.586705  PHI,EQ.RATIO= 0.000000

                 CHAMBER   THROAT     EXIT
 Pinf/P            1.0000   1.7888   23.170
 P, BAR            60.000   33.541   2.5896
 T, K             1696.16  1525.80   914.74
 RHO, KG/CU M    9.2132 0 5.7259 0 7.3739-1
 H, KJ/KG        -5709.25 -6068.72 -7250.57
 U, KJ/KG        -6360.49 -6654.51 -7601.75
 G, KJ/KG        -23638.5 -22197.2 -16919.9
 S, KJ/(KG)(K)    10.5705  10.5705  10.5705

 M, (1/n)          21.655   21.657   21.658
 (dLV/dLP)t      -1.00003 -1.00001 -1.00000
 (dLV/dLT)p        1.0012   1.0004   1.0000
 Cp, KJ/(KG)(K)    2.1496   2.0741   1.7865
 GAMMAs            1.2181   1.2274   1.2737
 SON VEL,M/SEC      890.6    847.9    668.8
 MACH NUMBER        0.000    1.000    2.625

 PERFORMANCE PARAMETERS

 Ae/At                      1.0000   3.7500
 CSTAR, M/SEC               1235.8   1235.8
 CF                         0.6861   1.4207
 Ivac, M/SEC                1538.8   1955.8
 Isp, M/SEC                  847.9   1755.7


 MOLE FRACTIONS

 HO2              0.00001  0.00000  0.00000
 H2O              0.73923  0.73943  0.73953
 *OH              0.00042  0.00014  0.00000
 *O2              0.26034  0.26043  0.26047

  * THERMODYNAMIC PROPERTIES FITTED TO 20000.K

    PRODUCTS WHICH WERE CONSIDERED BUT WHOSE MOLE FRACTIONS
    WERE LESS THAN 5.000000E-06 FOR ALL ASSIGNED CONDITIONS

 *H              *H2             H2O2            *O              O3             
 H2O(cr)         H2O(L)         

 NOTE. WEIGHT FRACTION OF FUEL IN TOTAL FUELS AND OF OXIDANT IN TOTAL OXIDANTS





           THEORETICAL ROCKET PERFORMANCE ASSUMING FROZEN COMPOSITION

 Pin =   870.2 PSIA
 CASE =                

             REACTANT                    WT FRACTION      ENERGY      TEMP
                                          (SEE NOTE)     KJ/KG-MOL      K  
 OXIDANT     H2O2                         1.0000000   -135886.358    298.000
 FUEL        H2O                          1.0000000   -241831.038    298.000

 O/F=    4.50000  %FUEL= 18.181818  R,EQ.RATIO= 0.586705  PHI,EQ.RATIO= 0.000000

                 CHAMBER   THROAT     EXIT
 Pinf/P            1.0000   1.7894   23.180
 P, BAR            60.000   33.531   2.5884
 T, K             1696.16  1524.69   913.53
 RHO, KG/CU M    9.2132 0 5.7278 0 7.3797-1
 H, KJ/KG        -5709.25 -6068.79 -7249.50
 U, KJ/KG        -6360.49 -6654.19 -7600.25
 G, KJ/KG        -23638.5 -22185.6 -16905.9
 S, KJ/(KG)(K)    10.5705  10.5705  10.5705

 M, (1/n)          21.655   21.655   21.655
 Cp, KJ/(KG)(K)    2.1275   2.0650   1.7859
 GAMMAs            1.2202   1.2284   1.2739
 SON VEL,M/SEC      891.4    848.0    668.4
 MACH NUMBER        0.000    1.000    2.626

 PERFORMANCE PARAMETERS

 Ae/At                      1.0000   3.7500
 CSTAR, M/SEC               1235.3   1235.3
 CF                         0.6865   1.4208
 Ivac, M/SEC                1538.3   1955.0
 Isp, M/SEC                  848.0   1755.1

 MOLE FRACTIONS

 HO2             0.00001   H2O             0.73923   *OH             0.00042
 *O2             0.26034

  * THERMODYNAMIC PROPERTIES FITTED TO 20000.K

    PRODUCTS WHICH WERE CONSIDERED BUT WHOSE MOLE FRACTIONS
    WERE LESS THAN 5.000000E-06 FOR ALL ASSIGNED CONDITIONS

 *H              *H2             H2O2            *O              O3             
 H2O(cr)         H2O(L)         

 NOTE. WEIGHT FRACTION OF FUEL IN TOTAL FUELS AND OF OXIDANT IN TOTAL OXIDANTS






 POINT ITN      T            H           O 
   1    2    1696.220     -13.663     -12.645
 Pinf/Pt = 1.782626
   2    3    1526.797     -14.637     -12.758
 Pinf/Pt = 1.788851
   2    2    1525.812     -14.643     -12.759
   3    4     927.583     -20.926     -13.270
   3    2     914.715     -21.151     -13.284
   3    1     914.740     -21.150     -13.284





              THEORETICAL ROCKET PERFORMANCE ASSUMING EQUILIBRIUM

           COMPOSITION DURING EXPANSION FROM INFINITE AREA COMBUSTOR

 Pin =  1015.3 PSIA
 CASE =                

             REACTANT                    WT FRACTION      ENERGY      TEMP
                                          (SEE NOTE)     KJ/KG-MOL      K  
 OXIDANT     H2O2                         1.0000000   -135886.358    298.000
 FUEL        H2O                          1.0000000   -241831.038    298.000

 O/F=    4.50000  %FUEL= 18.181818  R,EQ.RATIO= 0.586705  PHI,EQ.RATIO= 0.000000

                 CHAMBER   THROAT     EXIT
 Pinf/P            1.0000   1.7889   23.170
 P, BAR            70.000   39.131   3.0211
 T, K             1696.22  1525.81   914.74
 RHO, KG/CU M    1.0748 1 6.6801 0 8.6029-1
 H, KJ/KG        -5709.25 -6068.74 -7250.58
 U, KJ/KG        -6360.50 -6654.52 -7601.76
 G, KJ/KG        -23538.8 -22107.0 -16865.7
 S, KJ/(KG)(K)    10.5113  10.5113  10.5113

 M, (1/n)          21.655   21.657   21.658
 (dLV/dLP)t      -1.00003 -1.00001 -1.00000
 (dLV/dLT)p        1.0012   1.0004   1.0000
 Cp, KJ/(KG)(K)    2.1488   2.0738   1.7865
 GAMMAs            1.2181   1.2274   1.2737
 SON VEL,M/SEC      890.7    847.9    668.8
 MACH NUMBER        0.000    1.000    2.625

 PERFORMANCE PARAMETERS

 Ae/At                      1.0000   3.7500
 CSTAR, M/SEC               1235.8   1235.8
 CF                         0.6861   1.4207
 Ivac, M/SEC                1538.8   1955.8
 Isp, M/SEC                  847.9   1755.8


 MOLE FRACTIONS

 HO2              0.00001  0.00000  0.00000
 H2O              0.73924  0.73943  0.73953
 *OH              0.00041  0.00013  0.00000
 *O2              0.26034  0.26043  0.26047

  * THERMODYNAMIC PROPERTIES FITTED TO 20000.K

    PRODUCTS WHICH WERE CONSIDERED BUT WHOSE MOLE FRACTIONS
    WERE LESS THAN 5.000000E-06 FOR ALL ASSIGNED CONDITIONS

 *H              *H2             H2O2            *O              O3             
 H2O(cr)         H2O(L)         

 NOTE. WEIGHT FRACTION OF FUEL IN TOTAL FUELS AND OF OXIDANT IN TOTAL OXIDANTS





           THEORETICAL ROCKET PERFORMANCE ASSUMING FROZEN COMPOSITION

 Pin =  1015.3 PSIA
 CASE =                

             REACTANT                    WT FRACTION      ENERGY      TEMP
                                          (SEE NOTE)     KJ/KG-MOL      K  
 OXIDANT     H2O2                         1.0000000   -135886.358    298.000
 FUEL        H2O                          1.0000000   -241831.038    298.000

 O/F=    4.50000  %FUEL= 18.181818  R,EQ.RATIO= 0.586705  PHI,EQ.RATIO= 0.000000

                 CHAMBER   THROAT     EXIT
 Pinf/P            1.0000   1.7894   23.180
 P, BAR            70.000   39.119   3.0198
 T, K             1696.22  1524.75   913.57
 RHO, KG/CU M    1.0748 1 6.6823 0 8.6094-1
 H, KJ/KG        -5709.25 -6068.80 -7249.55
 U, KJ/KG        -6360.50 -6654.22 -7600.31
 G, KJ/KG        -23538.8 -22095.9 -16852.3
 S, KJ/(KG)(K)    10.5113  10.5113  10.5113

 M, (1/n)          21.655   21.655   21.655
 Cp, KJ/(KG)(K)    2.1275   2.0650   1.7859
 GAMMAs            1.2202   1.2284   1.2739
 SON VEL,M/SEC      891.4    848.0    668.4
 MACH NUMBER        0.000    1.000    2.626

 PERFORMANCE PARAMETERS

 Ae/At                      1.0000   3.7500
 CSTAR, M/SEC               1235.3   1235.3
 CF                         0.6865   1.4208
 Ivac, M/SEC                1538.4   1955.0
 Isp, M/SEC                  848.0   1755.2

 MOLE FRACTIONS

 HO2             0.00001   H2O             0.73924   *OH             0.00041
 *O2             0.26034

  * THERMODYNAMIC PROPERTIES FITTED TO 20000.K

    PRODUCTS WHICH WERE CONSIDERED BUT WHOSE MOLE FRACTIONS
    WERE LESS THAN 5.000000E-06 FOR ALL ASSIGNED CONDITIONS

 *H              *H2             H2O2            *O              O3             
 H2O(cr)         H2O(L)         

 NOTE. WEIGHT FRACTION OF FUEL IN TOTAL FUELS AND OF OXIDANT IN TOTAL OXIDANTS






 POINT ITN      T            H           O 
   1    2    1696.267     -13.630     -12.578
 Pinf/Pt = 1.782664
   2    3    1526.804     -14.603     -12.692
 Pinf/Pt = 1.788866
   2    2    1525.823     -14.609     -12.692
   3    4     927.575     -20.892     -13.203
   3    2     914.711     -21.117     -13.217
   3    1     914.736     -21.117     -13.217





              THEORETICAL ROCKET PERFORMANCE ASSUMING EQUILIBRIUM

           COMPOSITION DURING EXPANSION FROM INFINITE AREA COMBUSTOR

 Pin =  1160.3 PSIA
 CASE =                

             REACTANT                    WT FRACTION      ENERGY      TEMP
                                          (SEE NOTE)     KJ/KG-MOL      K  
 OXIDANT     H2O2                         1.0000000   -135886.358    298.000
 FUEL        H2O                          1.0000000   -241831.038    298.000

 O/F=    4.50000  %FUEL= 18.181818  R,EQ.RATIO= 0.586705  PHI,EQ.RATIO= 0.000000

                 CHAMBER   THROAT     EXIT
 Pinf/P            1.0000   1.7889   23.170
 P, BAR            80.000   44.721   3.4527
 T, K             1696.27  1525.82   914.74
 RHO, KG/CU M    1.2284 1 7.6343 0 9.8319-1
 H, KJ/KG        -5709.25 -6068.75 -7250.59
 U, KJ/KG        -6360.52 -6654.54 -7601.76
 G, KJ/KG        -23452.3 -22028.9 -16818.8
 S, KJ/(KG)(K)    10.4601  10.4601  10.4601

 M, (1/n)          21.655   21.657   21.658
 (dLV/dLP)t      -1.00003 -1.00001 -1.00000
 (dLV/dLT)p        1.0011   1.0004   1.0000
 Cp, KJ/(KG)(K)    2.1481   2.0735   1.7865
 GAMMAs            1.2182   1.2274   1.2737
 SON VEL,M/SEC      890.7    848.0    668.8
 MACH NUMBER        0.000    1.000    2.625

 PERFORMANCE PARAMETERS

 Ae/At                      1.0000   3.7500
 CSTAR, M/SEC               1235.8   1235.8
 CF                         0.6861   1.4207
 Ivac, M/SEC                1538.8   1955.8
 Isp, M/SEC                  847.9   1755.8


 MOLE FRACTIONS

 HO2              0.00001  0.00000  0.00000
 H2O              0.73925  0.73944  0.73953
 *OH              0.00039  0.00013  0.00000
 *O2              0.26034  0.26043  0.26047

  * THERMODYNAMIC PROPERTIES FITTED TO 20000.K

    PRODUCTS WHICH WERE CONSIDERED BUT WHOSE MOLE FRACTIONS
    WERE LESS THAN 5.000000E-06 FOR ALL ASSIGNED CONDITIONS

 *H              *H2             H2O2            *O              O3             
 H2O(cr)         H2O(L)         

 NOTE. WEIGHT FRACTION OF FUEL IN TOTAL FUELS AND OF OXIDANT IN TOTAL OXIDANTS





           THEORETICAL ROCKET PERFORMANCE ASSUMING FROZEN COMPOSITION

 Pin =  1160.3 PSIA
 CASE =                

             REACTANT                    WT FRACTION      ENERGY      TEMP
                                          (SEE NOTE)     KJ/KG-MOL      K  
 OXIDANT     H2O2                         1.0000000   -135886.358    298.000
 FUEL        H2O                          1.0000000   -241831.038    298.000

 O/F=    4.50000  %FUEL= 18.181818  R,EQ.RATIO= 0.586705  PHI,EQ.RATIO= 0.000000

                 CHAMBER   THROAT     EXIT
 Pinf/P            1.0000   1.7894   23.180
 P, BAR            80.000   44.708   3.4512
 T, K             1696.27  1524.79   913.60
 RHO, KG/CU M    1.2284 1 7.6367 0 9.8390-1
 H, KJ/KG        -5709.25 -6068.81 -7249.59
 U, KJ/KG        -6360.52 -6654.24 -7600.36
 G, KJ/KG        -23452.3 -22018.2 -16805.9
 S, KJ/(KG)(K)    10.4601  10.4601  10.4601

 M, (1/n)          21.655   21.655   21.655
 Cp, KJ/(KG)(K)    2.1275   2.0650   1.7859
 GAMMAs            1.2202   1.2284   1.2739
 SON VEL,M/SEC      891.5    848.0    668.5
 MACH NUMBER        0.000    1.000    2.626

 PERFORMANCE PARAMETERS

 Ae/At                      1.0000   3.7500
 CSTAR, M/SEC               1235.3   1235.3
 CF                         0.6865   1.4208
 Ivac, M/SEC                1538.4   1955.0
 Isp, M/SEC                  848.0   1755.2

 MOLE FRACTIONS

 HO2             0.00001   H2O             0.73925   *OH             0.00039
 *O2             0.26034

  * THERMODYNAMIC PROPERTIES FITTED TO 20000.K

    PRODUCTS WHICH WERE CONSIDERED BUT WHOSE MOLE FRACTIONS
    WERE LESS THAN 5.000000E-06 FOR ALL ASSIGNED CONDITIONS

 *H              *H2             H2O2            *O              O3             
 H2O(cr)         H2O(L)         

 NOTE. WEIGHT FRACTION OF FUEL IN TOTAL FUELS AND OF OXIDANT IN TOTAL OXIDANTS






 O/F =   5.000000

                       EFFECTIVE FUEL     EFFECTIVE OXIDANT        MIXTURE
 ENTHALPY                  h(2)/R              h(1)/R               h0/R
 (KG-MOL)(K)/KG       -0.16144863E+04     -0.48047723E+03     -0.66947874E+03

 KG-FORM.WT./KG             bi(2)               bi(1)               b0i
  *H                   0.11101687E+00      0.58798142E-01      0.67501264E-01
  *O                   0.55508435E-01      0.58798142E-01      0.58249858E-01

 POINT ITN      T            H           O 
   1    3    1722.804     -14.046     -13.634
 Pinf/Pt = 1.781118
   2    3    1552.313     -14.995     -13.747
 Pinf/Pt = 1.787833
   2    2    1551.239     -15.001     -13.748
 Pinf/Pt = 1.787875
   2    1    1551.233     -15.001     -13.748
   3    4     945.422     -21.141     -14.256
   3    2     932.527     -21.359     -14.270
   3    1     932.551     -21.358     -14.270





              THEORETICAL ROCKET PERFORMANCE ASSUMING EQUILIBRIUM

           COMPOSITION DURING EXPANSION FROM INFINITE AREA COMBUSTOR

 Pin =   145.0 PSIA
 CASE =                

             REACTANT                    WT FRACTION      ENERGY      TEMP
                                          (SEE NOTE)     KJ/KG-MOL      K  
 OXIDANT     H2O2                         1.0000000   -135886.358    298.000
 FUEL        H2O                          1.0000000   -241831.038    298.000

 O/F=    5.00000  %FUEL= 16.666667  R,EQ.RATIO= 0.579411  PHI,EQ.RATIO= 0.000000

                 CHAMBER   THROAT     EXIT
 Pinf/P            1.0000   1.7879   23.111
 P, BAR            10.000   5.5932  0.43269
 T, K             1722.80  1551.23   932.55
 RHO, KG/CU M    1.5173 0 9.4267-1 1.2131-1
 H, KJ/KG        -5566.39 -5930.01 -7127.68
 U, KJ/KG        -6225.44 -6523.35 -7484.35
 G, KJ/KG        -24956.5 -23389.1 -17623.5
 S, KJ/(KG)(K)    11.2550  11.2550  11.2550

 M, (1/n)          21.735   21.738   21.739
 (dLV/dLP)t      -1.00006 -1.00002 -1.00000
 (dLV/dLT)p        1.0024   1.0009   1.0000
 Cp, KJ/(KG)(K)    2.1660   2.0807   1.7872
 GAMMAs            1.2157   1.2257   1.2723
 SON VEL,M/SEC      895.1    852.8    673.6
 MACH NUMBER        0.000    1.000    2.623

 PERFORMANCE PARAMETERS

 Ae/At                      1.0000   3.7500
 CSTAR, M/SEC               1243.9   1243.9
 CF                         0.6856   1.4206
 Ivac, M/SEC                1548.6   1968.9
 Isp, M/SEC                  852.8   1767.1


 MOLE FRACTIONS

 *H2              0.00001  0.00000  0.00000
 H2O              0.73314  0.73352  0.73371
 *O               0.00001  0.00000  0.00000
 *OH              0.00079  0.00026  0.00000
 *O2              0.26604  0.26621  0.26629

  * THERMODYNAMIC PROPERTIES FITTED TO 20000.K

    PRODUCTS WHICH WERE CONSIDERED BUT WHOSE MOLE FRACTIONS
    WERE LESS THAN 5.000000E-06 FOR ALL ASSIGNED CONDITIONS

 *H              HO2             H2O2            O3              H2O(cr)        
 H2O(L)         

 NOTE. WEIGHT FRACTION OF FUEL IN TOTAL FUELS AND OF OXIDANT IN TOTAL OXIDANTS





           THEORETICAL ROCKET PERFORMANCE ASSUMING FROZEN COMPOSITION

 Pin =   145.0 PSIA
 CASE =                

             REACTANT                    WT FRACTION      ENERGY      TEMP
                                          (SEE NOTE)     KJ/KG-MOL      K  
 OXIDANT     H2O2                         1.0000000   -135886.358    298.000
 FUEL        H2O                          1.0000000   -241831.038    298.000

 O/F=    5.00000  %FUEL= 16.666667  R,EQ.RATIO= 0.579411  PHI,EQ.RATIO= 0.000000

                 CHAMBER   THROAT     EXIT
 Pinf/P            1.0000   1.7889   23.131
 P, BAR            10.000   5.5901  0.43233
 T, K             1722.80  1549.18   930.25
 RHO, KG/CU M    1.5173 0 9.4326-1 1.2149-1
 H, KJ/KG        -5566.39 -5930.13 -7125.69
 U, KJ/KG        -6225.44 -6522.76 -7481.56
 G, KJ/KG        -24956.5 -23366.1 -17595.6
 S, KJ/(KG)(K)    11.2550  11.2550  11.2550

 M, (1/n)          21.735   21.735   21.735
 Cp, KJ/(KG)(K)    2.1253   2.0636   1.7861
 GAMMAs            1.2195   1.2276   1.2726
 SON VEL,M/SEC      896.5    852.9    672.9
 MACH NUMBER        0.000    1.000    2.624

 PERFORMANCE PARAMETERS

 Ae/At                      1.0000   3.7500
 CSTAR, M/SEC               1243.0   1243.0
 CF                         0.6862   1.4208
 Ivac, M/SEC                1547.8   1967.5
 Isp, M/SEC                  852.9   1766.0

 MOLE FRACTIONS

 *H2             0.00001   H2O             0.73314   *O              0.00001
 *OH             0.00079   *O2             0.26604

  * THERMODYNAMIC PROPERTIES FITTED TO 20000.K

    PRODUCTS WHICH WERE CONSIDERED BUT WHOSE MOLE FRACTIONS
    WERE LESS THAN 5.000000E-06 FOR ALL ASSIGNED CONDITIONS

 *H              HO2             H2O2            O3              H2O(cr)        
 H2O(L)         

 NOTE. WEIGHT FRACTION OF FUEL IN TOTAL FUELS AND OF OXIDANT IN TOTAL OXIDANTS






 POINT ITN      T            H           O 
   1    3    1723.265     -13.870     -13.287
 Pinf/Pt = 1.781474
   2    3    1552.388     -14.821     -13.401
 Pinf/Pt = 1.787981
   2    2    1551.345     -14.827     -13.401
   3    4     945.342     -20.969     -13.909
   3    2     932.488     -21.186     -13.923
   3    1     932.512     -21.186     -13.923





              THEORETICAL ROCKET PERFORMANCE ASSUMING EQUILIBRIUM

           COMPOSITION DURING EXPANSION FROM INFINITE AREA COMBUSTOR

 Pin =   290.1 PSIA
 CASE =                

             REACTANT                    WT FRACTION      ENERGY      TEMP
                                          (SEE NOTE)     KJ/KG-MOL      K  
 OXIDANT     H2O2                         1.0000000   -135886.358    298.000
 FUEL        H2O                          1.0000000   -241831.038    298.000

 O/F=    5.00000  %FUEL= 16.666667  R,EQ.RATIO= 0.579411  PHI,EQ.RATIO= 0.000000

                 CHAMBER   THROAT     EXIT
 Pinf/P            1.0000   1.7880   23.112
 P, BAR            20.000   11.186  0.86533
 T, K             1723.26  1551.35   932.51
 RHO, KG/CU M    3.0339 0 1.8851 0 2.4262-1
 H, KJ/KG        -5566.39 -5930.10 -7127.75
 U, KJ/KG        -6225.60 -6523.47 -7484.40
 G, KJ/KG        -24504.7 -22979.1 -17375.9
 S, KJ/(KG)(K)    10.9898  10.9898  10.9898

 M, (1/n)          21.735   21.738   21.739
 (dLV/dLP)t      -1.00005 -1.00001 -1.00000
 (dLV/dLT)p        1.0020   1.0007   1.0000
 Cp, KJ/(KG)(K)    2.1595   2.0781   1.7872
 GAMMAs            1.2162   1.2259   1.2723
 SON VEL,M/SEC      895.4    852.9    673.6
 MACH NUMBER        0.000    1.000    2.623

 PERFORMANCE PARAMETERS

 Ae/At                      1.0000   3.7500
 CSTAR, M/SEC               1243.9   1243.9
 CF                         0.6856   1.4206
 Ivac, M/SEC                1548.6   1969.0
 Isp, M/SEC                  852.9   1767.1


 MOLE FRACTIONS

 HO2              0.00001  0.00000  0.00000
 *H2              0.00001  0.00000  0.00000
 H2O              0.73323  0.73355  0.73371
 *O               0.00001  0.00000  0.00000
 *OH              0.00067  0.00022  0.00000
 *O2              0.26608  0.26622  0.26629

  * THERMODYNAMIC PROPERTIES FITTED TO 20000.K

    PRODUCTS WHICH WERE CONSIDERED BUT WHOSE MOLE FRACTIONS
    WERE LESS THAN 5.000000E-06 FOR ALL ASSIGNED CONDITIONS

 *H              H2O2            O3              H2O(cr)         H2O(L)         

 NOTE. WEIGHT FRACTION OF FUEL IN TOTAL FUELS AND OF OXIDANT IN TOTAL OXIDANTS





           THEORETICAL ROCKET PERFORMANCE ASSUMING FROZEN COMPOSITION

 Pin =   290.1 PSIA
 CASE =                

             REACTANT                    WT FRACTION      ENERGY      TEMP
                                          (SEE NOTE)     KJ/KG-MOL      K  
 OXIDANT     H2O2                         1.0000000   -135886.358    298.000
 FUEL        H2O                          1.0000000   -241831.038    298.000

 O/F=    5.00000  %FUEL= 16.666667  R,EQ.RATIO= 0.579411  PHI,EQ.RATIO= 0.000000

                 CHAMBER   THROAT     EXIT
 Pinf/P            1.0000   1.7889   23.129
 P, BAR            20.000   11.180  0.86471
 T, K             1723.26  1549.62   930.58
 RHO, KG/CU M    3.0339 0 1.8861 0 2.4291-1
 H, KJ/KG        -5566.39 -5930.21 -7126.08
 U, KJ/KG        -6225.60 -6522.99 -7482.06
[...]

 *H              H2O2            O3              H2O(cr)         H2O(L)         

 NOTE. WEIGHT FRACTION OF FUEL IN TOTAL FUELS AND OF OXIDANT IN TOTAL OXIDANTS





           THEORETICAL ROCKET PERFORMANCE ASSUMING FROZEN COMPOSITION

 Pin =   580.2 PSIA
 CASE =                

             REACTANT                    WT FRACTION      ENERGY      TEMP
                                          (SEE NOTE)     KJ/KG-MOL      K  
 OXIDANT     H2O2                         1.0000000   -135886.358    298.000
 FUEL        H2O                          1.0000000   -241831.038    298.000

 O/F=   99.00000  %FUEL=  1.000000  R,EQ.RATIO= 0.504723  PHI,EQ.RATIO= 0.000000

                 CHAMBER   THROAT     EXIT
 Pinf/P            1.0000   1.7845   22.685
 P, BAR            40.000   22.415   1.7633
 T, K             2015.94  1818.10  1113.65
 RHO, KG/CU M    5.3934 0 3.3512 0 4.3039-1
 H, KJ/KG        -4089.22 -4497.39 -5849.04
 U, KJ/KG        -4830.87 -5166.25 -6258.74
 G, KJ/KG        -25608.0 -23904.4 -17736.5
 S, KJ/(KG)(K)    10.6743  10.6743  10.6743

 M, (1/n)          22.600   22.600   22.600
 Cp, KJ/(KG)(K)    2.0889   2.0362   1.7831
 GAMMAs            1.2138   1.2205   1.2600
 SON VEL,M/SEC      948.8    903.5    718.5
 MACH NUMBER        0.000    1.000    2.611

 PERFORMANCE PARAMETERS

 Ae/At                     1.00000   3.7500
 CSTAR, M/SEC               1321.1   1321.1
 CF                         0.6839   1.4201
 Ivac, M/SEC                1643.8   2094.5
 Isp, M/SEC                  903.5   1876.1

 MOLE FRACTIONS

 HO2             0.00003   *H2             0.00006   H2O             0.66881
 *O              0.00007   *OH             0.00288   *O2             0.32815

  * THERMODYNAMIC PROPERTIES FITTED TO 20000.K

    PRODUCTS WHICH WERE CONSIDERED BUT WHOSE MOLE FRACTIONS
    WERE LESS THAN 5.000000E-06 FOR ALL ASSIGNED CONDITIONS

 *H              H2O2            O3              H2O(cr)         H2O(L)         

 NOTE. WEIGHT FRACTION OF FUEL IN TOTAL FUELS AND OF OXIDANT IN TOTAL OXIDANTS






 POINT ITN      T            H           O 
   1    2    2016.511     -12.710     -12.998
 Pinf/Pt = 1.774605
   2    3    1826.181     -13.478     -13.110
 Pinf/Pt = 1.781436
   2    2    1824.942     -13.484     -13.111
 Pinf/Pt = 1.781479
   2    1    1824.935     -13.484     -13.111
   3    4    1134.701     -18.433     -13.593
   3    2    1122.418     -18.576     -13.604
   3    1    1122.437     -18.576     -13.604





              THEORETICAL ROCKET PERFORMANCE ASSUMING EQUILIBRIUM

           COMPOSITION DURING EXPANSION FROM INFINITE AREA COMBUSTOR

 Pin =   725.2 PSIA
 CASE =                

             REACTANT                    WT FRACTION      ENERGY      TEMP
                                          (SEE NOTE)     KJ/KG-MOL      K  
 OXIDANT     H2O2                         1.0000000   -135886.358    298.000
 FUEL        H2O                          1.0000000   -241831.038    298.000

 O/F=   99.00000  %FUEL=  1.000000  R,EQ.RATIO= 0.504723  PHI,EQ.RATIO= 0.000000

                 CHAMBER   THROAT     EXIT
 Pinf/P            1.0000   1.7815   22.613
 P, BAR            50.000   28.067   2.2111
 T, K             2016.51  1824.93  1122.44
 RHO, KG/CU M    6.7401 0 4.1824 0 5.3587-1
 H, KJ/KG        -4089.22 -4496.95 -5855.41
 U, KJ/KG        -4831.05 -5168.01 -6268.03
 G, KJ/KG        -25448.6 -23827.1 -17744.5
 S, KJ/(KG)(K)    10.5922  10.5922  10.5922

 M, (1/n)          22.601   22.611   22.618
 (dLV/dLP)t      -1.00020 -1.00008 -1.00000
 (dLV/dLT)p        1.0073   1.0033   1.0000
 Cp, KJ/(KG)(K)    2.1918   2.0894   1.7871
 GAMMAs            1.2050   1.2152   1.2590
 SON VEL,M/SEC      945.5    903.0    720.7
 MACH NUMBER        0.000    1.000    2.608

 PERFORMANCE PARAMETERS

 Ae/At                      1.0000   3.7500
 CSTAR, M/SEC               1323.9   1323.9
 CF                         0.6821   1.4197
 Ivac, M/SEC                1646.1   2099.0
 Isp, M/SEC                  903.0   1879.5


 MOLE FRACTIONS

 HO2              0.00003  0.00001  0.00000
 *H2              0.00005  0.00001  0.00000
 H2O              0.66892  0.67005  0.67085
 H2O2             0.00001  0.00000  0.00000
 *O               0.00006  0.00002  0.00000
 *OH              0.00273  0.00115  0.00000
 *O2              0.32820  0.32875  0.32915

  * THERMODYNAMIC PROPERTIES FITTED TO 20000.K

    PRODUCTS WHICH WERE CONSIDERED BUT WHOSE MOLE FRACTIONS
    WERE LESS THAN 5.000000E-06 FOR ALL ASSIGNED CONDITIONS

 *H              O3              H2O(cr)         H2O(L)         

 NOTE. WEIGHT FRACTION OF FUEL IN TOTAL FUELS AND OF OXIDANT IN TOTAL OXIDANTS





           THEORETICAL ROCKET PERFORMANCE ASSUMING FROZEN COMPOSITION

 Pin =   725.2 PSIA
 CASE =                

             REACTANT                    WT FRACTION      ENERGY      TEMP
                                          (SEE NOTE)     KJ/KG-MOL      K  
 OXIDANT     H2O2                         1.0000000   -135886.358    298.000
 FUEL        H2O                          1.0000000   -241831.038    298.000

 O/F=   99.00000  %FUEL=  1.000000  R,EQ.RATIO= 0.504723  PHI,EQ.RATIO= 0.000000

                 CHAMBER   THROAT     EXIT
 Pinf/P            1.0000   1.7845   22.683
 P, BAR            50.000   28.019   2.2043
 T, K             2016.51  1818.64  1114.07
 RHO, KG/CU M    6.7401 0 4.1880 0 5.3785-1
 H, KJ/KG        -4089.22 -4497.48 -5849.49
 U, KJ/KG        -4831.05 -5166.51 -6259.32
 G, KJ/KG        -25448.6 -23761.0 -17650.0
 S, KJ/(KG)(K)    10.5922  10.5922  10.5922

 M, (1/n)          22.601   22.601   22.601
 Cp, KJ/(KG)(K)    2.0890   2.0364   1.7832
 GAMMAs            1.2137   1.2205   1.2599
 SON VEL,M/SEC      948.9    903.6    718.6
 MACH NUMBER        0.000    1.000    2.611

 PERFORMANCE PARAMETERS

 Ae/At                      1.0000   3.7500
 CSTAR, M/SEC               1321.2   1321.2
 CF                         0.6839   1.4201
 Ivac, M/SEC                1644.0   2094.7
 Isp, M/SEC                  903.6   1876.3

 MOLE FRACTIONS

 HO2             0.00003   *H2             0.00005   H2O             0.66892
 H2O2            0.00001   *O              0.00006   *OH             0.00273
 *O2             0.32820

  * THERMODYNAMIC PROPERTIES FITTED TO 20000.K

    PRODUCTS WHICH WERE CONSIDERED BUT WHOSE MOLE FRACTIONS
    WERE LESS THAN 5.000000E-06 FOR ALL ASSIGNED CONDITIONS

 *H              O3              H2O(cr)         H2O(L)         

 NOTE. WEIGHT FRACTION OF FUEL IN TOTAL FUELS AND OF OXIDANT IN TOTAL OXIDANTS






 POINT ITN      T            H           O 
   1    2    2016.954     -12.663     -12.908
 Pinf/Pt = 1.774821
   2    3    1826.306     -13.432     -13.019
 Pinf/Pt = 1.781556
   2    2    1825.084     -13.438     -13.020
 Pinf/Pt = 1.781597
   2    1    1825.077     -13.438     -13.020
   3    4    1134.623     -18.388     -13.502
   3    2    1122.370     -18.531     -13.513
   3    1    1122.389     -18.531     -13.513





              THEORETICAL ROCKET PERFORMANCE ASSUMING EQUILIBRIUM

           COMPOSITION DURING EXPANSION FROM INFINITE AREA COMBUSTOR

 Pin =   870.2 PSIA
 CASE =                

             REACTANT                    WT FRACTION      ENERGY      TEMP
                                          (SEE NOTE)     KJ/KG-MOL      K  
 OXIDANT     H2O2                         1.0000000   -135886.358    298.000
 FUEL        H2O                          1.0000000   -241831.038    298.000

 O/F=   99.00000  %FUEL=  1.000000  R,EQ.RATIO= 0.504723  PHI,EQ.RATIO= 0.000000

                 CHAMBER   THROAT     EXIT
 Pinf/P            1.0000   1.7816   22.615
 P, BAR            60.000   33.678   2.6531
 T, K             2016.95  1825.08  1122.39
 RHO, KG/CU M    8.0867 0 5.0183 0 6.4302-1
 H, KJ/KG        -4089.22 -4497.04 -5855.50
 U, KJ/KG        -4831.18 -5168.15 -6268.10
 G, KJ/KG        -25318.0 -23706.3 -17668.8
 S, KJ/(KG)(K)    10.5252  10.5252  10.5252

 M, (1/n)          22.602   22.611   22.618
 (dLV/dLP)t      -1.00019 -1.00008 -1.00000
 (dLV/dLT)p        1.0070   1.0031   1.0000
 Cp, KJ/(KG)(K)    2.1871   2.0871   1.7870
 GAMMAs            1.2053   1.2154   1.2590
 SON VEL,M/SEC      945.7    903.1    720.7
 MACH NUMBER        0.000    1.000    2.608

 PERFORMANCE PARAMETERS

 Ae/At                      1.0000   3.7500
 CSTAR, M/SEC               1323.9   1323.9
 CF                         0.6822   1.4197
 Ivac, M/SEC                1646.2   2099.0
 Isp, M/SEC                  903.1   1879.5


 MOLE FRACTIONS

 HO2              0.00003  0.00001  0.00000
 *H2              0.00005  0.00001  0.00000
 H2O              0.66901  0.67009  0.67085
 H2O2             0.00001  0.00000  0.00000
 *O               0.00006  0.00002  0.00000
 *OH              0.00261  0.00110  0.00000
 *O2              0.32824  0.32877  0.32915

  * THERMODYNAMIC PROPERTIES FITTED TO 20000.K

    PRODUCTS WHICH WERE CONSIDERED BUT WHOSE MOLE FRACTIONS
    WERE LESS THAN 5.000000E-06 FOR ALL ASSIGNED CONDITIONS

 *H              O3              H2O(cr)         H2O(L)         

 NOTE. WEIGHT FRACTION OF FUEL IN TOTAL FUELS AND OF OXIDANT IN TOTAL OXIDANTS





           THEORETICAL ROCKET PERFORMANCE ASSUMING FROZEN COMPOSITION

 Pin =   870.2 PSIA
 CASE =                

             REACTANT                    WT FRACTION      ENERGY      TEMP
                                          (SEE NOTE)     KJ/KG-MOL      K  
 OXIDANT     H2O2                         1.0000000   -135886.358    298.000
 FUEL        H2O                          1.0000000   -241831.038    298.000

 O/F=   99.00000  %FUEL=  1.000000  R,EQ.RATIO= 0.504723  PHI,EQ.RATIO= 0.000000

                 CHAMBER   THROAT     EXIT
 Pinf/P            1.0000   1.7845   22.682
 P, BAR            60.000   33.624   2.6453
 T, K             2016.95  1819.06  1114.39
 RHO, KG/CU M    8.0867 0 5.0247 0 6.4529-1
 H, KJ/KG        -4089.22 -4497.55 -5849.83
 U, KJ/KG        -4831.18 -5166.72 -6259.77
 G, KJ/KG        -25318.0 -23643.5 -17579.0
 S, KJ/(KG)(K)    10.5252  10.5252  10.5252

 M, (1/n)          22.602   22.602   22.602
 Cp, KJ/(KG)(K)    2.0891   2.0365   1.7834
 GAMMAs            1.2137   1.2205   1.2599
 SON VEL,M/SEC      949.0    903.7    718.7
 MACH NUMBER        0.000    1.000    2.611

 PERFORMANCE PARAMETERS

 Ae/At                      1.0000   3.7500
 CSTAR, M/SEC               1321.4   1321.4
 CF                         0.6839   1.4201
 Ivac, M/SEC                1644.2   2095.0
 Isp, M/SEC                  903.7   1876.5

 MOLE FRACTIONS

 HO2             0.00003   *H2             0.00005   H2O             0.66901
 H2O2            0.00001   *O              0.00006   *OH             0.00261
 *O2             0.32824

  * THERMODYNAMIC PROPERTIES FITTED TO 20000.K

    PRODUCTS WHICH WERE CONSIDERED BUT WHOSE MOLE FRACTIONS
    WERE LESS THAN 5.000000E-06 FOR ALL ASSIGNED CONDITIONS

 *H              O3              H2O(cr)         H2O(L)         

 NOTE. WEIGHT FRACTION OF FUEL IN TOTAL FUELS AND OF OXIDANT IN TOTAL OXIDANTS






 POINT ITN      T            H           O 
   1    2    2017.312     -12.624     -12.831
 Pinf/Pt = 1.774996
   2    3    1826.407     -13.393     -12.942
 Pinf/Pt = 1.781652
   2    2    1825.199     -13.399     -12.943
 Pinf/Pt = 1.781693
   2    1    1825.191     -13.399     -12.943
   3    4    1134.560     -18.350     -13.425
   3    2    1122.331     -18.493     -13.436
   3    1    1122.351     -18.493     -13.436





              THEORETICAL ROCKET PERFORMANCE ASSUMING EQUILIBRIUM

           COMPOSITION DURING EXPANSION FROM INFINITE AREA COMBUSTOR

 Pin =  1015.3 PSIA
 CASE =                

             REACTANT                    WT FRACTION      ENERGY      TEMP
                                          (SEE NOTE)     KJ/KG-MOL      K  
 OXIDANT     H2O2                         1.0000000   -135886.358    298.000
 FUEL        H2O                          1.0000000   -241831.038    298.000

 O/F=   99.00000  %FUEL=  1.000000  R,EQ.RATIO= 0.504723  PHI,EQ.RATIO= 0.000000

                 CHAMBER   THROAT     EXIT
 Pinf/P            1.0000   1.7817   22.616
 P, BAR            70.000   39.288   3.0951
 T, K             2017.31  1825.19  1122.35
 RHO, KG/CU M    9.4330 0 5.8540 0 7.5017-1
 H, KJ/KG        -4089.22 -4497.12 -5855.57
 U, KJ/KG        -4831.29 -5168.26 -6268.15
 G, KJ/KG        -25207.4 -23604.1 -17604.9
 S, KJ/(KG)(K)    10.4685  10.4685  10.4685

 M, (1/n)          22.603   22.612   22.618
 (dLV/dLP)t      -1.00019 -1.00007 -1.00000
 (dLV/dLT)p        1.0067   1.0030   1.0000
 Cp, KJ/(KG)(K)    2.1834   2.0852   1.7870
 GAMMAs            1.2056   1.2155   1.2590
 SON VEL,M/SEC      945.9    903.2    720.7
 MACH NUMBER        0.000    1.000    2.608

 PERFORMANCE PARAMETERS

 Ae/At                      1.0000   3.7500
 CSTAR, M/SEC               1323.9   1323.9
 CF                         0.6822   1.4197
 Ivac, M/SEC                1646.3   2099.1
 Isp, M/SEC                  903.2   1879.5


 MOLE FRACTIONS

 HO2              0.00003  0.00001  0.00000
 *H2              0.00005  0.00001  0.00000
 H2O              0.66908  0.67011  0.67085
 H2O2             0.00001  0.00000  0.00000
 *O               0.00005  0.00001  0.00000
 *OH              0.00252  0.00106  0.00000
 *O2              0.32827  0.32878  0.32915

  * THERMODYNAMIC PROPERTIES FITTED TO 20000.K

    PRODUCTS WHICH WERE CONSIDERED BUT WHOSE MOLE FRACTIONS
    WERE LESS THAN 5.000000E-06 FOR ALL ASSIGNED CONDITIONS

 *H              O3              H2O(cr)         H2O(L)         

 NOTE. WEIGHT FRACTION OF FUEL IN TOTAL FUELS AND OF OXIDANT IN TOTAL OXIDANTS





           THEORETICAL ROCKET PERFORMANCE ASSUMING FROZEN COMPOSITION

 Pin =  1015.3 PSIA
 CASE =                

             REACTANT                    WT FRACTION      ENERGY      TEMP
                                          (SEE NOTE)     KJ/KG-MOL      K  
 OXIDANT     H2O2                         1.0000000   -135886.358    298.000
 FUEL        H2O                          1.0000000   -241831.038    298.000

 O/F=   99.00000  %FUEL=  1.000000  R,EQ.RATIO= 0.504723  PHI,EQ.RATIO= 0.000000

                 CHAMBER   THROAT     EXIT
 Pinf/P            1.0000   1.7844   22.681
 P, BAR            70.000   39.228   3.0864
 T, K             2017.31  1819.40  1114.65
 RHO, KG/CU M    9.4330 0 5.8613 0 7.5272-1
 H, KJ/KG        -4089.22 -4497.61 -5850.11
 U, KJ/KG        -4831.29 -5166.88 -6260.14
 G, KJ/KG        -25207.4 -23544.0 -17518.8
 S, KJ/(KG)(K)    10.4685  10.4685  10.4685

 M, (1/n)          22.603   22.603   22.603
 Cp, KJ/(KG)(K)    2.0892   2.0366   1.7835
 GAMMAs            1.2137   1.2204   1.2599
 SON VEL,M/SEC      949.0    903.8    718.7
 MACH NUMBER        0.000    1.000    2.611

 PERFORMANCE PARAMETERS

 Ae/At                      1.0000   3.7500
 CSTAR, M/SEC               1321.5   1321.5
 CF                         0.6839   1.4201
 Ivac, M/SEC                1644.3   2095.1
 Isp, M/SEC                  903.8   1876.6

 MOLE FRACTIONS

 HO2             0.00003   *H2             0.00005   H2O             0.66908
 H2O2            0.00001   *O              0.00005   *OH             0.00252
 *O2             0.32827

  * THERMODYNAMIC PROPERTIES FITTED TO 20000.K

    PRODUCTS WHICH WERE CONSIDERED BUT WHOSE MOLE FRACTIONS
    WERE LESS THAN 5.000000E-06 FOR ALL ASSIGNED CONDITIONS

 *H              O3              H2O(cr)         H2O(L)         

 NOTE. WEIGHT FRACTION OF FUEL IN TOTAL FUELS AND OF OXIDANT IN TOTAL OXIDANTS






 POINT ITN      T            H           O 
   1    2    2017.610     -12.590     -12.764
 Pinf/Pt = 1.775141
   2    3    1826.492     -13.360     -12.875
 Pinf/Pt = 1.781732
   2    2    1825.294     -13.365     -12.876
 Pinf/Pt = 1.781772
   2    1    1825.287     -13.365     -12.876
   3    4    1134.507     -18.317     -13.359
   3    2    1122.299     -18.460     -13.369
   3    1    1122.319     -18.459     -13.369





              THEORETICAL ROCKET PERFORMANCE ASSUMING EQUILIBRIUM

           COMPOSITION DURING EXPANSION FROM INFINITE AREA COMBUSTOR

 Pin =  1160.3 PSIA
 CASE =                

             REACTANT                    WT FRACTION      ENERGY      TEMP
                                          (SEE NOTE)     KJ/KG-MOL      K  
 OXIDANT     H2O2                         1.0000000   -135886.358    298.000
 FUEL        H2O                          1.0000000   -241831.038    298.000

 O/F=   99.00000  %FUEL=  1.000000  R,EQ.RATIO= 0.504723  PHI,EQ.RATIO= 0.000000

                 CHAMBER   THROAT     EXIT
 Pinf/P            1.0000   1.7818   22.618
 P, BAR            80.000   44.899   3.5371
 T, K             2017.61  1825.29  1122.32
 RHO, KG/CU M    1.0779 1 6.6897 0 8.5732-1
 H, KJ/KG        -4089.22 -4497.18 -5855.63
 U, KJ/KG        -4831.39 -5168.35 -6268.20
 G, KJ/KG        -25111.4 -23515.5 -17549.5
 S, KJ/(KG)(K)    10.4194  10.4194  10.4194

 M, (1/n)          22.603   22.612   22.618
 (dLV/dLP)t      -1.00018 -1.00007 -1.00000
 (dLV/dLT)p        1.0065   1.0029   1.0000
 Cp, KJ/(KG)(K)    2.1803   2.0837   1.7870
 GAMMAs            1.2059   1.2157   1.2590
 SON VEL,M/SEC      946.0    903.3    720.7
 MACH NUMBER        0.000    1.000    2.608

 PERFORMANCE PARAMETERS

 Ae/At                      1.0000   3.7500
 CSTAR, M/SEC               1323.9   1323.9
 CF                         0.6823   1.4197
 Ivac, M/SEC                1646.3   2099.1
 Isp, M/SEC                  903.3   1879.6


 MOLE FRACTIONS

 HO2              0.00003  0.00001  0.00000
 *H2              0.00004  0.00001  0.00000
 H2O              0.66913  0.67014  0.67085
 H2O2             0.00001  0.00000  0.00000
 *O               0.00005  0.00001  0.00000
 *OH              0.00244  0.00103  0.00000
 *O2              0.32829  0.32879  0.32915

  * THERMODYNAMIC PROPERTIES FITTED TO 20000.K

    PRODUCTS WHICH WERE CONSIDERED BUT WHOSE MOLE FRACTIONS
    WERE LESS THAN 5.000000E-06 FOR ALL ASSIGNED CONDITIONS

 *H              O3              H2O(cr)         H2O(L)         

 NOTE. WEIGHT FRACTION OF FUEL IN TOTAL FUELS AND OF OXIDANT IN TOTAL OXIDANTS





           THEORETICAL ROCKET PERFORMANCE ASSUMING FROZEN COMPOSITION

 Pin =  1160.3 PSIA
 CASE =                

             REACTANT                    WT FRACTION      ENERGY      TEMP
                                          (SEE NOTE)     KJ/KG-MOL      K  
 OXIDANT     H2O2                         1.0000000   -135886.358    298.000
 FUEL        H2O                          1.0000000   -241831.038    298.000

 O/F=   99.00000  %FUEL=  1.000000  R,EQ.RATIO= 0.504723  PHI,EQ.RATIO= 0.000000

                 CHAMBER   THROAT     EXIT
 Pinf/P            1.0000   1.7844   22.680
 P, BAR            80.000   44.832   3.5274
 T, K             2017.61  1819.68  1114.87
 RHO, KG/CU M    1.0779 1 6.6978 0 8.6013-1
 H, KJ/KG        -4089.22 -4497.66 -5850.34
 U, KJ/KG        -4831.39 -5167.02 -6260.44
 G, KJ/KG        -25111.4 -23457.6 -17466.6
 S, KJ/(KG)(K)    10.4194  10.4194  10.4194

 M, (1/n)          22.603   22.603   22.603
 Cp, KJ/(KG)(K)    2.0893   2.0367   1.7836
 GAMMAs            1.2137   1.2204   1.2598
 SON VEL,M/SEC      949.1    903.8    718.8
 MACH NUMBER        0.000    1.000    2.611

 PERFORMANCE PARAMETERS

 Ae/At                      1.0000   3.7500
 CSTAR, M/SEC               1321.6   1321.6
 CF                         0.6839   1.4201
 Ivac, M/SEC                1644.4   2095.3
 Isp, M/SEC                  903.8   1876.8

 MOLE FRACTIONS

 HO2             0.00003   *H2             0.00004   H2O             0.66913
 H2O2            0.00001   *O              0.00005   *OH             0.00244
 *O2             0.32829

  * THERMODYNAMIC PROPERTIES FITTED TO 20000.K

    PRODUCTS WHICH WERE CONSIDERED BUT WHOSE MOLE FRACTIONS
    WERE LESS THAN 5.000000E-06 FOR ALL ASSIGNED CONDITIONS

 *H              O3              H2O(cr)         H2O(L)         

 NOTE. WEIGHT FRACTION OF FUEL IN TOTAL FUELS AND OF OXIDANT IN TOTAL OXIDANTS



