
 *******************************************************************************

         NASA-GLENN CHEMICAL EQUILIBRIUM PROGRAM CEA2, MAY 21, 2004
                   BY  BONNIE MCBRIDE AND SANFORD GORDON
      REFS: NASA RP-1311, PART I, 1994 AND NASA RP-1311, PART II, 1996

 *******************************************************************************



 problem    o/f=4,4.5,5,5.5,6,6.5,7,7.5,8,8.5,9,9.5,10,40,80,99,
     rocket  equilibrium  frozen  nfz=1  tcest,k=3000
   p,bar=1.6,1.7,1.75,1.8,1.81,1.85,1.9,20.0,
   sup,ae/at=3.75,
 react
   oxid=H2O2 wt=100  t,k=298
   fuel=H2O wt=100  t,k=298
 output
     plot o/f p t rho h g m mw cp gam pip mach cf ivac isp
 end

 OPTIONS: TP=F  HP=F  SP=F  TV=F  UV=F  SV=F  DETN=F  SHOCK=F  REFL=F  INCD=F
 RKT=T  FROZ=T  EQL=T  IONS=F  SIUNIT=T  DEBUGF=F  SHKDBG=F  DETDBG=F  TRNSPT=F

 TRACE= 0.00E+00  S/R= 0.000000E+00  H/R= 0.000000E+00  U/R= 0.000000E+00

 Pc,BAR =     1.600000     1.700000     1.750000     1.800000     1.810000     1.850000     1.900000

 Pc,BAR =    20.000000

 Pc/P =

 SUBSONIC AREA RATIOS =

 SUPERSONIC AREA RATIOS =     3.7500

 NFZ=  1  Mdot/Ac= 0.000000E+00  Ac/At= 0.000000E+00

    REACTANT          WT.FRAC   (ENERGY/R),K   TEMP,K  DENSITY
        EXPLODED FORMULA
 O: H2O2             1.000000  -0.163433E+05   298.00  0.0000
          H  2.00000  O  2.00000
 F: H2O              1.000000  -0.290854E+05   298.00  0.0000
          H  2.00000  O  1.00000

  SPECIES BEING CONSIDERED IN THIS SYSTEM
 (CONDENSED PHASE MAY HAVE NAME LISTED SEVERAL TIMES)
  LAST thermo.inp UPDATE:    9/09/04

  g 6/97  *H               g 4/02  HO2              tpis78  *H2            
  g 8/89  H2O              g 6/99  H2O2             g 5/97  *O             
  g 4/02  *OH              tpis89  *O2              g 8/01  O3             
  g11/99  H2O(cr)          g 8/01  H2O(L)           g 8/01  H2O(L)         

 O/F =   4.000000

                       EFFECTIVE FUEL     EFFECTIVE OXIDANT        MIXTURE
 ENTHALPY                  h(2)/R              h(1)/R               h0/R
 (KG-MOL)(K)/KG       -0.16144863E+04     -0.48047723E+03     -0.70727904E+03

 KG-FORM.WT./KG             bi(2)               bi(1)               b0i
  *H                   0.11101687E+00      0.58798142E-01      0.69241888E-01
  *O                   0.55508435E-01      0.58798142E-01      0.58140201E-01

 POINT ITN      T            H           O 
   1    9    1661.296     -14.752     -14.513
 Pinf/Pt = 1.781831
   2    3    1495.891     -15.744     -14.628
 Pinf/Pt = 1.789046
   2    2    1494.772     -15.751     -14.628
 Pinf/Pt = 1.789093
   2    1    1494.764     -15.751     -14.628
   3    4     906.872     -22.198     -15.143
   3    2     893.744     -22.439     -15.158
   3    1     893.770     -22.438     -15.158





              THEORETICAL ROCKET PERFORMANCE ASSUMING EQUILIBRIUM

           COMPOSITION DURING EXPANSION FROM INFINITE AREA COMBUSTOR

 Pin =    23.2 PSIA
 CASE =                

             REACTANT                    WT FRACTION      ENERGY      TEMP
                                          (SEE NOTE)     KJ/KG-MOL      K  
 OXIDANT     H2O2                         1.0000000   -135886.358    298.000
 FUEL        H2O                          1.0000000   -241831.038    298.000

 O/F=    4.00000  %FUEL= 20.000000  R,EQ.RATIO= 0.595473  PHI,EQ.RATIO= 0.000000

                 CHAMBER   THROAT     EXIT
 Pinf/P            1.0000   1.7891   23.233
 P, BAR            1.6000  0.89431  0.06887
 T, K             1661.30  1494.76   893.77
 RHO, KG/CU M    2.4969-1 1.5514-1 1.9981-2
 H, KJ/KG        -5880.68 -6234.52 -7397.52
 U, KJ/KG        -6521.47 -6810.98 -7742.19
 G, KJ/KG        -25764.2 -24124.9 -18094.8
 S, KJ/(KG)(K)    11.9687  11.9687  11.9687

 M, (1/n)          21.556   21.559   21.561
 (dLV/dLP)t      -1.00006 -1.00002 -1.00000
 (dLV/dLT)p        1.0026   1.0009   1.0000
 Cp, KJ/(KG)(K)    2.1753   2.0835   1.7857
 GAMMAs            1.2168   1.2276   1.2754
 SON VEL,M/SEC      883.0    841.2    663.0
 MACH NUMBER        0.000    1.000    2.627

 PERFORMANCE PARAMETERS

 Ae/At                      1.0000   3.7500
 CSTAR, M/SEC               1226.0   1226.0
 CF                         0.6862   1.4207
 Ivac, M/SEC                1526.5   1939.6
 Isp, M/SEC                  841.2   1741.7


 MOLE FRACTIONS

 *H2              0.00002  0.00000  0.00000
 H2O              0.74586  0.74627  0.74645
 *O               0.00001  0.00000  0.00000
 *OH              0.00082  0.00026  0.00000
 *O2              0.25329  0.25346  0.25355

  * THERMODYNAMIC PROPERTIES FITTED TO 20000.K

    PRODUCTS WHICH WERE CONSIDERED BUT WHOSE MOLE FRACTIONS
    WERE LESS THAN 5.000000E-06 FOR ALL ASSIGNED CONDITIONS

 *H              HO2             H2O2            O3              H2O(cr)        
 H2O(L)         

 NOTE. WEIGHT FRACTION OF FUEL IN TOTAL FUELS AND OF OXIDANT IN TOTAL OXIDANTS





           THEORETICAL ROCKET PERFORMANCE ASSUMING FROZEN COMPOSITION

 Pin =    23.2 PSIA
 CASE =                

             REACTANT                    WT FRACTION      ENERGY      TEMP
                                          (SEE NOTE)     KJ/KG-MOL      K  
 OXIDANT     H2O2                         1.0000000   -135886.358    298.000
 FUEL        H2O                          1.0000000   -241831.038    298.000

 O/F=    4.00000  %FUEL= 20.000000  R,EQ.RATIO= 0.595473  PHI,EQ.RATIO= 0.000000

                 CHAMBER   THROAT     EXIT
 Pinf/P            1.0000   1.7902   23.254
 P, BAR            1.6000  0.89375  0.06881
 T, K             1661.30  1492.54   891.37
 RHO, KG/CU M    2.4969-1 1.5525-1 2.0013-2
 H, KJ/KG        -5880.68 -6234.64 -7395.37
 U, KJ/KG        -6521.47 -6810.34 -7739.18
 G, KJ/KG        -25764.2 -24098.4 -18063.9
 S, KJ/(KG)(K)    11.9687  11.9687  11.9687

 M, (1/n)          21.556   21.556   21.556
 Cp, KJ/(KG)(K)    2.1287   2.0651   1.7845
 GAMMAs            1.2213   1.2297   1.2758
 SON VEL,M/SEC      884.6    841.4    662.3
 MACH NUMBER        0.000    1.000    2.628

 PERFORMANCE PARAMETERS

 Ae/At                      1.0000   3.7500
 CSTAR, M/SEC               1224.9   1224.9
 CF                         0.6869   1.4209
 Ivac, M/SEC                1525.6   1938.0
 Isp, M/SEC                  841.4   1740.5

 MOLE FRACTIONS

 *H2             0.00002   H2O             0.74586   *O              0.00001
 *OH             0.00082   *O2             0.25329

  * THERMODYNAMIC PROPERTIES FITTED TO 20000.K

    PRODUCTS WHICH WERE CONSIDERED BUT WHOSE MOLE FRACTIONS
    WERE LESS THAN 5.000000E-06 FOR ALL ASSIGNED CONDITIONS

 *H              HO2             H2O2            O3              H2O(cr)        
 H2O(L)         

 NOTE. WEIGHT FRACTION OF FUEL IN TOTAL FUELS AND OF OXIDANT IN TOTAL OXIDANTS






 POINT ITN      T            H           O 
   1    2    1661.343     -14.737     -14.483
 Pinf/Pt = 1.781871
   2    3    1495.897     -15.728     -14.597
 Pinf/Pt = 1.789061
   2    2    1494.782     -15.736     -14.598
 Pinf/Pt = 1.789108
   2    1    1494.774     -15.736     -14.598
   3    4     906.864     -22.183     -15.113
   3    2     893.740     -22.424     -15.128
   3    1     893.767     -22.423     -15.128





              THEORETICAL ROCKET PERFORMANCE ASSUMING EQUILIBRIUM

           COMPOSITION DURING EXPANSION FROM INFINITE AREA COMBUSTOR

 Pin =    24.7 PSIA
 CASE =                

             REACTANT                    WT FRACTION      ENERGY      TEMP
                                          (SEE NOTE)     KJ/KG-MOL      K  
 OXIDANT     H2O2                         1.0000000   -135886.358    298.000
 FUEL        H2O                          1.0000000   -241831.038    298.000

 O/F=    4.00000  %FUEL= 20.000000  R,EQ.RATIO= 0.595473  PHI,EQ.RATIO= 0.000000

                 CHAMBER   THROAT     EXIT
 Pinf/P            1.0000   1.7891   23.233
 P, BAR            1.7000  0.95019  0.07317
 T, K             1661.34  1494.77   893.77
 RHO, KG/CU M    2.6529-1 1.6483-1 2.1230-2
 H, KJ/KG        -5880.68 -6234.53 -7397.53
 U, KJ/KG        -6521.48 -6811.00 -7742.19
 G, KJ/KG        -25725.9 -24090.0 -18073.8
 S, KJ/(KG)(K)    11.9453  11.9453  11.9453

 M, (1/n)          21.556   21.559   21.561
 (dLV/dLP)t      -1.00006 -1.00002 -1.00000
 (dLV/dLT)p        1.0026   1.0009   1.0000
 Cp, KJ/(KG)(K)    2.1746   2.0833   1.7857
 GAMMAs            1.2169   1.2276   1.2754
 SON VEL,M/SEC      883.1    841.2    663.0
 MACH NUMBER        0.000    1.000    2.627

 PERFORMANCE PARAMETERS

 Ae/At                      1.0000   3.7500
 CSTAR, M/SEC               1226.0   1226.0
 CF                         0.6862   1.4207
 Ivac, M/SEC                1526.5   1939.6
 Isp, M/SEC                  841.2   1741.8


 MOLE FRACTIONS

 *H2              0.00002  0.00000  0.00000
 H2O              0.74587  0.74627  0.74645
 *O               0.00001  0.00000  0.00000
 *OH              0.00081  0.00026  0.00000
 *O2              0.25329  0.25347  0.25355

  * THERMODYNAMIC PROPERTIES FITTED TO 20000.K

    PRODUCTS WHICH WERE CONSIDERED BUT WHOSE MOLE FRACTIONS
    WERE LESS THAN 5.000000E-06 FOR ALL ASSIGNED CONDITIONS

 *H              HO2             H2O2            O3              H2O(cr)        
 H2O(L)         

 NOTE. WEIGHT FRACTION OF FUEL IN TOTAL FUELS AND OF OXIDANT IN TOTAL OXIDANTS





           THEORETICAL ROCKET PERFORMANCE ASSUMING FROZEN COMPOSITION

 Pin =    24.7 PSIA
 CASE =                

             REACTANT                    WT FRACTION      ENERGY      TEMP
                                          (SEE NOTE)     KJ/KG-MOL      K  
 OXIDANT     H2O2                         1.0000000   -135886.358    298.000
 FUEL        H2O                          1.0000000   -241831.038    298.000

 O/F=    4.00000  %FUEL= 20.000000  R,EQ.RATIO= 0.595473  PHI,EQ.RATIO= 0.000000

                 CHAMBER   THROAT     EXIT
 Pinf/P            1.0000   1.7902   23.253
 P, BAR            1.7000  0.94961  0.07311
 T, K             1661.34  1492.59   891.40
 RHO, KG/CU M    2.6529-1 1.6494-1 2.1263-2
 H, KJ/KG        -5880.68 -6234.65 -7395.41
 U, KJ/KG        -6521.48 -6810.36 -7739.23
 G, KJ/KG        -25725.9 -24064.0 -18043.4
 S, KJ/(KG)(K)    11.9453  11.9453  11.9453

 M, (1/n)          21.556   21.556   21.556
 Cp, KJ/(KG)(K)    2.1287   2.0651   1.7845
 GAMMAs            1.2213   1.2297   1.2757
 SON VEL,M/SEC      884.7    841.4    662.3
 MACH NUMBER        0.000    1.000    2.628

 PERFORMANCE PARAMETERS

 Ae/At                      1.0000   3.7500
 CSTAR, M/SEC               1224.9   1224.9
 CF                         0.6869   1.4209
 Ivac, M/SEC                1525.6   1938.1
 Isp, M/SEC                  841.4   1740.5

 MOLE FRACTIONS

 *H2             0.00002   H2O             0.74587   *O              0.00001
 *OH             0.00081   *O2             0.25329

  * THERMODYNAMIC PROPERTIES FITTED TO 20000.K

    PRODUCTS WHICH WERE CONSIDERED BUT WHOSE MOLE FRACTIONS
    WERE LESS THAN 5.000000E-06 FOR ALL ASSIGNED CONDITIONS

 *H              HO2             H2O2            O3              H2O(cr)        
 H2O(L)         

 NOTE. WEIGHT FRACTION OF FUEL IN TOTAL FUELS AND OF OXIDANT IN TOTAL OXIDANTS






 POINT ITN      T            H           O 
   1    2    1661.365     -14.729     -14.468
 Pinf/Pt = 1.781890
   2    3    1495.900     -15.721     -14.583
 Pinf/Pt = 1.789069
   2    2    1494.786     -15.729     -14.584
 Pinf/Pt = 1.789115
   2    1    1494.779     -15.729     -14.584
   3    4     906.861     -22.176     -15.098
   3    2     893.739     -22.416     -15.113
   3    1     893.765     -22.416     -15.113





              THEORETICAL ROCKET PERFORMANCE ASSUMING EQUILIBRIUM

           COMPOSITION DURING EXPANSION FROM INFINITE AREA COMBUSTOR

 Pin =    25.4 PSIA
 CASE =                

             REACTANT                    WT FRACTION      ENERGY      TEMP
                                          (SEE NOTE)     KJ/KG-MOL      K  
 OXIDANT     H2O2                         1.0000000   -135886.358    298.000
 FUEL        H2O                          1.0000000   -241831.038    298.000

 O/F=    4.00000  %FUEL= 20.000000  R,EQ.RATIO= 0.595473  PHI,EQ.RATIO= 0.000000

                 CHAMBER   THROAT     EXIT
 Pinf/P            1.0000   1.7891   23.233
 P, BAR            1.7500  0.97814  0.07532
 T, K             1661.36  1494.78   893.76
 RHO, KG/CU M    2.7309-1 1.6968-1 2.1854-2
 H, KJ/KG        -5880.68 -6234.53 -7397.53
 U, KJ/KG        -6521.49 -6811.00 -7742.20
 G, KJ/KG        -25707.6 -24073.4 -18063.8
 S, KJ/(KG)(K)    11.9341  11.9341  11.9341

 M, (1/n)          21.556   21.559   21.561
 (dLV/dLP)t      -1.00006 -1.00002 -1.00000
 (dLV/dLT)p        1.0026   1.0009   1.0000
 Cp, KJ/(KG)(K)    2.1742   2.0832   1.7857
 GAMMAs            1.2169   1.2276   1.2754
 SON VEL,M/SEC      883.1    841.3    663.0
 MACH NUMBER        0.000    1.000    2.627

 PERFORMANCE PARAMETERS

 Ae/At                      1.0000   3.7500
 CSTAR, M/SEC               1226.0   1226.0
 CF                         0.6862   1.4207
 Ivac, M/SEC                1526.5   1939.6
 Isp, M/SEC                  841.3   1741.8


 MOLE FRACTIONS

 *H2              0.00001  0.00000  0.00000
 H2O              0.74588  0.74627  0.74645
 *O               0.00001  0.00000  0.00000
 *OH              0.00080  0.00025  0.00000
 *O2              0.25329  0.25347  0.25355

  * THERMODYNAMIC PROPERTIES FITTED TO 20000.K

    PRODUCTS WHICH WERE CONSIDERED BUT WHOSE MOLE FRACTIONS
    WERE LESS THAN 5.000000E-06 FOR ALL ASSIGNED CONDITIONS

 *H              HO2             H2O2            O3              H2O(cr)        
 H2O(L)         

 NOTE. WEIGHT FRACTION OF FUEL IN TOTAL FUELS AND OF OXIDANT IN TOTAL OXIDANTS





           THEORETICAL ROCKET PERFORMANCE ASSUMING FROZEN COMPOSITION

 Pin =    25.4 PSIA
 CASE =                

             REACTANT                    WT FRACTION      ENERGY      TEMP
                                          (SEE NOTE)     KJ/KG-MOL      K  
 OXIDANT     H2O2                         1.0000000   -135886.358    298.000
 FUEL        H2O                          1.0000000   -241831.038    298.000

 O/F=    4.00000  %FUEL= 20.000000  R,EQ.RATIO= 0.595473  PHI,EQ.RATIO= 0.000000

                 CHAMBER   THROAT     EXIT
 Pinf/P            1.0000   1.7902   23.253
 P, BAR            1.7500  0.97754  0.07526
 T, K             1661.36  1492.61   891.42
 RHO, KG/CU M    2.7309-1 1.6979-1 2.1888-2
 H, KJ/KG        -5880.68 -6234.65 -7395.43
 U, KJ/KG        -6521.49 -6810.37 -7739.26
 G, KJ/KG        -25707.6 -24047.6 -18033.7
 S, KJ/(KG)(K)    11.9341  11.9341  11.9341

 M, (1/n)          21.556   21.556   21.556
 Cp, KJ/(KG)(K)    2.1287   2.0651   1.7845
 GAMMAs            1.2213   1.2297   1.2757
 SON VEL,M/SEC      884.7    841.4    662.3
 MACH NUMBER        0.000    1.000    2.628

 PERFORMANCE PARAMETERS

 Ae/At                      1.0000   3.7500
 CSTAR, M/SEC               1224.9   1224.9
 CF                         0.6869   1.4209
 Ivac, M/SEC                1525.6   1938.1
 Isp, M/SEC                  841.4   1740.5

 MOLE FRACTIONS

 *H2             0.00001   H2O             0.74588   *O              0.00001
 *OH             0.00080   *O2             0.25329

  * THERMODYNAMIC PROPERTIES FITTED TO 20000.K

    PRODUCTS WHICH WERE CONSIDERED BUT WHOSE MOLE FRACTIONS
    WERE LESS THAN 5.000000E-06 FOR ALL ASSIGNED CONDITIONS

 *H              HO2             H2O2            O3              H2O(cr)        
 H2O(L)         

 NOTE. WEIGHT FRACTION OF FUEL IN TOTAL FUELS AND OF OXIDANT IN TOTAL OXIDANTS






 POINT ITN      T            H           O 
   1    2    1661.386     -14.722     -14.454
 Pinf/Pt = 1.781908
   2    3    1495.903     -15.714     -14.569
 Pinf/Pt = 1.789076
   2    2    1494.791     -15.721     -14.570
 Pinf/Pt = 1.789122
   2    1    1494.784     -15.722     -14.570
   3    4     906.857     -22.169     -15.084
   3    2     893.737     -22.409     -15.099
   3    1     893.763     -22.409     -15.099





              THEORETICAL ROCKET PERFORMANCE ASSUMING EQUILIBRIUM

           COMPOSITION DURING EXPANSION FROM INFINITE AREA COMBUSTOR

 Pin =    26.1 PSIA
 CASE =                

             REACTANT                    WT FRACTION      ENERGY      TEMP
                                          (SEE NOTE)     KJ/KG-MOL      K  
 OXIDANT     H2O2                         1.0000000   -135886.358    298.000
 FUEL        H2O                          1.0000000   -241831.038    298.000

 O/F=    4.00000  %FUEL= 20.000000  R,EQ.RATIO= 0.595473  PHI,EQ.RATIO= 0.000000

                 CHAMBER   THROAT     EXIT
 Pinf/P            1.0000   1.7891   23.233
 P, BAR            1.8000   1.0061  0.07747
 T, K             1661.39  1494.78   893.76
 RHO, KG/CU M    2.8089-1 1.7452-1 2.2478-2
 H, KJ/KG        -5880.68 -6234.54 -7397.53
 U, KJ/KG        -6521.50 -6811.01 -7742.20
 G, KJ/KG        -25689.8 -24057.2 -18054.1
 S, KJ/(KG)(K)    11.9232  11.9232  11.9232

 M, (1/n)          21.556   21.559   21.561
 (dLV/dLP)t      -1.00006 -1.00002 -1.00000
 (dLV/dLT)p        1.0026   1.0009   1.0000
 Cp, KJ/(KG)(K)    2.1739   2.0830   1.7857
 GAMMAs            1.2170   1.2277   1.2754
 SON VEL,M/SEC      883.1    841.3    663.0
 MACH NUMBER        0.000    1.000    2.627

 PERFORMANCE PARAMETERS

 Ae/At                      1.0000   3.7500
 CSTAR, M/SEC               1226.0   1226.0
 CF                         0.6862   1.4207
 Ivac, M/SEC                1526.5   1939.6
 Isp, M/SEC                  841.3   1741.8


 MOLE FRACTIONS

 *H2              0.00001  0.00000  0.00000
 H2O              0.74588  0.74628  0.74645
 *O               0.00001  0.00000  0.00000
 *OH              0.00080  0.00025  0.00000
 *O2              0.25329  0.25347  0.25355

  * THERMODYNAMIC PROPERTIES FITTED TO 20000.K

    PRODUCTS WHICH WERE CONSIDERED BUT WHOSE MOLE FRACTIONS
    WERE LESS THAN 5.000000E-06 FOR ALL ASSIGNED CONDITIONS

 *H              HO2             H2O2            O3              H2O(cr)        
 H2O(L)         

 NOTE. WEIGHT FRACTION OF FUEL IN TOTAL FUELS AND OF OXIDANT IN TOTAL OXIDANTS





           THEORETICAL ROCKET PERFORMANCE ASSUMING FROZEN COMPOSITION

 Pin =    26.1 PSIA
 CASE =                

             REACTANT                    WT FRACTION      ENERGY      TEMP
                                          (SEE NOTE)     KJ/KG-MOL      K  
 OXIDANT     H2O2                         1.0000000   -135886.358    298.000
 FUEL        H2O                          1.0000000   -241831.038    298.000

 O/F=    4.00000  %FUEL= 20.000000  R,EQ.RATIO= 0.595473  PHI,EQ.RATIO= 0.000000

                 CHAMBER   THROAT     EXIT
 Pinf/P            1.0000   1.7902   23.253
 P, BAR            1.8000   1.0055  0.07741
 T, K             1661.39  1492.63   891.43
 RHO, KG/CU M    2.8089-1 1.7464-1 2.2513-2
 H, KJ/KG        -5880.68 -6234.66 -7395.44
 U, KJ/KG        -6521.50 -6810.38 -7739.28
 G, KJ/KG        -25689.8 -24031.6 -18024.2
 S, KJ/(KG)(K)    11.9232  11.9232  11.9232

 M, (1/n)          21.556   21.556   21.556
 Cp, KJ/(KG)(K)    2.1287   2.0651   1.7845
 GAMMAs            1.2213   1.2297   1.2757
 SON VEL,M/SEC      884.7    841.4    662.3
 MACH NUMBER        0.000    1.000    2.628

 PERFORMANCE PARAMETERS

 Ae/At                      1.0000   3.7500
 CSTAR, M/SEC               1225.0   1225.0
 CF                         0.6869   1.4209
 Ivac, M/SEC                1525.6   1938.1
 Isp, M/SEC                  841.4   1740.6

 MOLE FRACTIONS

 *H2             0.00001   H2O             0.74588   *O              0.00001
 *OH             0.00080   *O2             0.25329

  * THERMODYNAMIC PROPERTIES FITTED TO 20000.K

    PRODUCTS WHICH WERE CONSIDERED BUT WHOSE MOLE FRACTIONS
    WERE LESS THAN 5.000000E-06 FOR ALL ASSIGNED CONDITIONS

 *H              HO2             H2O2            O3              H2O(cr)        
 H2O(L)         

 NOTE. WEIGHT FRACTION OF FUEL IN TOTAL FUELS AND OF OXIDANT IN TOTAL OXIDANTS






 POINT ITN      T            H           O 
   1    1    1661.390     -14.721     -14.451
 Pinf/Pt = 1.781911
   2    3    1495.903     -15.713     -14.566
 Pinf/Pt = 1.789077
   2    2    1494.792     -15.720     -14.567
 Pinf/Pt = 1.789123
   2    1    1494.784     -15.720     -14.567
   3    4     906.856     -22.168     -15.081
   3    2     893.737     -22.408     -15.096
   3    1     893.763     -22.407     -15.096





              THEORETICAL ROCKET PERFORMANCE ASSUMING EQUILIBRIUM

           COMPOSITION DURING EXPANSION FROM INFINITE AREA COMBUSTOR

 Pin =    26.3 PSIA
 CASE =                

             REACTANT                    WT FRACTION      ENERGY      TEMP
                                          (SEE NOTE)     KJ/KG-MOL      K  
 OXIDANT     H2O2                         1.0000000   -135886.358    298.000
 FUEL        H2O                          1.0000000   -241831.038    298.000

 O/F=    4.00000  %FUEL= 20.000000  R,EQ.RATIO= 0.595473  PHI,EQ.RATIO= 0.000000

                 CHAMBER   THROAT     EXIT
 Pinf/P            1.0000   1.7891   23.233
 P, BAR            1.8100   1.0117  0.07790
 T, K             1661.39  1494.78   893.76
 RHO, KG/CU M    2.8245-1 1.7549-1 2.2603-2
 H, KJ/KG        -5880.68 -6234.54 -7397.53
 U, KJ/KG        -6521.50 -6811.01 -7742.20
 G, KJ/KG        -25686.3 -24054.0 -18052.2
 S, KJ/(KG)(K)    11.9211  11.9211  11.9211

 M, (1/n)          21.556   21.559   21.561
 (dLV/dLP)t      -1.00006 -1.00002 -1.00000
 (dLV/dLT)p        1.0026   1.0009   1.0000
 Cp, KJ/(KG)(K)    2.1738   2.0830   1.7857
 GAMMAs            1.2170   1.2277   1.2754
 SON VEL,M/SEC      883.1    841.3    663.0
 MACH NUMBER        0.000    1.000    2.627

 PERFORMANCE PARAMETERS

 Ae/At                      1.0000   3.7500
 CSTAR, M/SEC               1226.0   1226.0
 CF                         0.6862   1.4207
 Ivac, M/SEC                1526.5   1939.6
 Isp, M/SEC                  841.3   1741.8


 MOLE FRACTIONS

 *H2              0.00001  0.00000  0.00000
 H2O              0.74588  0.74628  0.74645
 *O               0.00001  0.00000  0.00000
 *OH              0.00080  0.00025  0.00000
 *O2              0.25329  0.25347  0.25355

  * THERMODYNAMIC PROPERTIES FITTED TO 20000.K

    PRODUCTS WHICH WERE CONSIDERED BUT WHOSE MOLE FRACTIONS
    WERE LESS THAN 5.000000E-06 FOR ALL ASSIGNED CONDITIONS

 *H              HO2             H2O2            O3              H2O(cr)        
 H2O(L)         

 NOTE. WEIGHT FRACTION OF FUEL IN TOTAL FUELS AND OF OXIDANT IN TOTAL OXIDANTS





           THEORETICAL ROCKET PERFORMANCE ASSUMING FROZEN COMPOSITION

 Pin =    26.3 PSIA
 CASE =                

             REACTANT                    WT FRACTION      ENERGY      TEMP
                                          (SEE NOTE)     KJ/KG-MOL      K  
 OXIDANT     H2O2                         1.0000000   -135886.358    298.000
 FUEL        H2O                          1.0000000   -241831.038    298.000

 O/F=    4.00000  %FUEL= 20.000000  R,EQ.RATIO= 0.595473  PHI,EQ.RATIO= 0.000000

                 CHAMBER   THROAT     EXIT
 Pinf/P            1.0000   1.7902   23.253
 P, BAR            1.8100   1.0111  0.07784
 T, K             1661.39  1492.63   891.44
 RHO, KG/CU M    2.8245-1 1.7561-1 2.2638-2
 H, KJ/KG        -5880.68 -6234.66 -7395.45
 U, KJ/KG        -6521.50 -6810.38 -7739.29
 G, KJ/KG        -25686.3 -24028.5 -18022.3
 S, KJ/(KG)(K)    11.9211  11.9211  11.9211

 M, (1/n)          21.556   21.556   21.556
 Cp, KJ/(KG)(K)    2.1287   2.0651   1.7845
 GAMMAs            1.2213   1.2297   1.2757
 SON VEL,M/SEC      884.7    841.4    662.3
 MACH NUMBER        0.000    1.000    2.628

 PERFORMANCE PARAMETERS

 Ae/At                      1.0000   3.7500
 CSTAR, M/SEC               1225.0   1225.0
 CF                         0.6869   1.4209
 Ivac, M/SEC                1525.7   1938.1
 Isp, M/SEC                  841.4   1740.6

 MOLE FRACTIONS

 *H2             0.00001   H2O             0.74588   *O              0.00001
 *OH             0.00080   *O2             0.25329

  * THERMODYNAMIC PROPERTIES FITTED TO 20000.K

    PRODUCTS WHICH WERE CONSIDERED BUT WHOSE MOLE FRACTIONS
    WERE LESS THAN 5.000000E-06 FOR ALL ASSIGNED CONDITIONS

 *H              HO2             H2O2            O3              H2O(cr)        
 H2O(L)         

 NOTE. WEIGHT FRACTION OF FUEL IN TOTAL FUELS AND OF OXIDANT IN TOTAL OXIDANTS






 POINT ITN      T            H           O 
   1    1    1661.407     -14.715     -14.440
 Pinf/Pt = 1.781925
   2    3    1495.906     -15.707     -14.555
 Pinf/Pt = 1.789083
   2    2    1494.795     -15.715     -14.556
 Pinf/Pt = 1.789129
   2    1    1494.788     -15.715     -14.556
   3    4     906.853     -22.162     -15.070
   3    2     893.735     -22.402     -15.086
   3    1     893.762     -22.402     -15.085





              THEORETICAL ROCKET PERFORMANCE ASSUMING EQUILIBRIUM

           COMPOSITION DURING EXPANSION FROM INFINITE AREA COMBUSTOR

 Pin =    26.8 PSIA
 CASE =                

             REACTANT                    WT FRACTION      ENERGY      TEMP
                                          (SEE NOTE)     KJ/KG-MOL      K  
 OXIDANT     H2O2                         1.0000000   -135886.358    298.000
 FUEL        H2O                          1.0000000   -241831.038    298.000

 O/F=    4.00000  %FUEL= 20.000000  R,EQ.RATIO= 0.595473  PHI,EQ.RATIO= 0.000000

                 CHAMBER   THROAT     EXIT
 Pinf/P            1.0000   1.7891   23.233
 P, BAR            1.8500   1.0340  0.07963
 T, K             1661.41  1494.79   893.76
 RHO, KG/CU M    2.8869-1 1.7937-1 2.3103-2
 H, KJ/KG        -5880.68 -6234.54 -7397.54
 U, KJ/KG        -6521.50 -6811.02 -7742.20
 G, KJ/KG        -25672.5 -24041.5 -18044.6
 S, KJ/(KG)(K)    11.9127  11.9127  11.9127

 M, (1/n)          21.556   21.559   21.561
 (dLV/dLP)t      -1.00006 -1.00002 -1.00000
 (dLV/dLT)p        1.0025   1.0009   1.0000
 Cp, KJ/(KG)(K)    2.1736   2.0829   1.7857
 GAMMAs            1.2170   1.2277   1.2754
 SON VEL,M/SEC      883.1    841.3    663.0
 MACH NUMBER        0.000    1.000    2.627

 PERFORMANCE PARAMETERS

 Ae/At                     1.00000   3.7500
 CSTAR, M/SEC               1226.0   1226.0
 CF                         0.6862   1.4207
 Ivac, M/SEC                1526.5   1939.6
 Isp, M/SEC                  841.3   1741.8


 MOLE FRACTIONS

 *H2              0.00001  0.00000  0.00000
 H2O              0.74588  0.74628  0.74645
 *O               0.00001  0.00000  0.00000
 *OH              0.00079  0.00025  0.00000
 *O2              0.25329  0.25347  0.25355

  * THERMODYNAMIC PROPERTIES FITTED TO 20000.K

    PRODUCTS WHICH WERE CONSIDERED BUT WHOSE MOLE FRACTIONS
    WERE LESS THAN 5.000000E-06 FOR ALL ASSIGNED CONDITIONS

 *H              HO2             H2O2            O3              H2O(cr)        
 H2O(L)         

 NOTE. WEIGHT FRACTION OF FUEL IN TOTAL FUELS AND OF OXIDANT IN TOTAL OXIDANTS





           THEORETICAL ROCKET PERFORMANCE ASSUMING FROZEN COMPOSITION

 Pin =    26.8 PSIA
 CASE =                

             REACTANT                    WT FRACTION      ENERGY      TEMP
                                          (SEE NOTE)     KJ/KG-MOL      K  
 OXIDANT     H2O2                         1.0000000   -135886.358    298.000
 FUEL        H2O                          1.0000000   -241831.038    298.000

 O/F=    4.00000  %FUEL= 20.000000  R,EQ.RATIO= 0.595473  PHI,EQ.RATIO= 0.000000

                 CHAMBER   THROAT     EXIT
 Pinf/P            1.0000   1.7902   23.253
 P, BAR            1.8500   1.0334  0.07956
 T, K             1661.41  1492.65   891.45
 RHO, KG/CU M    2.8869-1 1.7949-1 2.3138-2
 H, KJ/KG        -5880.68 -6234.66 -7395.46
 U, KJ/KG        -6521.50 -6810.39 -7739.30
 G, KJ/KG        -25672.5 -24016.1 -18015.0
 S, KJ/(KG)(K)    11.9127  11.9127  11.9127

 M, (1/n)          21.556   21.556   21.556
 Cp, KJ/(KG)(K)    2.1287   2.0651   1.7845
 GAMMAs            1.2213   1.2297   1.2757
 SON VEL,M/SEC      884.7    841.4    662.3
 MACH NUMBER        0.000    1.000    2.628

 PERFORMANCE PARAMETERS

 Ae/At                     1.00000   3.7500
 CSTAR, M/SEC               1225.0   1225.0
 CF                         0.6869   1.4209
 Ivac, M/SEC                1525.7   1938.1
 Isp, M/SEC                  841.4   1740.6

 MOLE FRACTIONS

 *H2             0.00001   H2O             0.74588   *O              0.00001
 *OH             0.00079   *O2             0.25329

  * THERMODYNAMIC PROPERTIES FITTED TO 20000.K

    PRODUCTS WHICH WERE CONSIDERED BUT WHOSE MOLE FRACTIONS
    WERE LESS THAN 5.000000E-06 FOR ALL ASSIGNED CONDITIONS

 *H              HO2             H2O2            O3              H2O(cr)        
 H2O(L)         

 NOTE. WEIGHT FRACTION OF FUEL IN TOTAL FUELS AND OF OXIDANT IN TOTAL OXIDANTS






 POINT ITN      T            H           O 
   1    2    1661.427     -14.708     -14.427
 Pinf/Pt = 1.781942
   2    3    1495.908     -15.701     -14.542
 Pinf/Pt = 1.789089
   2    2    1494.799     -15.708     -14.543
 Pinf/Pt = 1.789135
   2    1    1494.792     -15.708     -14.543
   3    4     906.850     -22.156     -15.057
   3    2     893.734     -22.396     -15.072
   3    1     893.760     -22.395     -15.072





              THEORETICAL ROCKET PERFORMANCE ASSUMING EQUILIBRIUM

           COMPOSITION DURING EXPANSION FROM INFINITE AREA COMBUSTOR

 Pin =    27.6 PSIA
 CASE =                

             REACTANT                    WT FRACTION      ENERGY      TEMP
                                          (SEE NOTE)     KJ/KG-MOL      K  
 OXIDANT     H2O2                         1.0000000   -135886.358    298.000
 FUEL        H2O                          1.0000000   -241831.038    298.000

 O/F=    4.00000  %FUEL= 20.000000  R,EQ.RATIO= 0.595473  PHI,EQ.RATIO= 0.000000

                 CHAMBER   THROAT     EXIT
 Pinf/P            1.0000   1.7891   23.234
 P, BAR            1.9000   1.0620  0.08178
 T, K             1661.43  1494.79   893.76
 RHO, KG/CU M    2.9649-1 1.8422-1 2.3727-2
 H, KJ/KG        -5880.68 -6234.54 -7397.54
 U, KJ/KG        -6521.51 -6811.02 -7742.20
 G, KJ/KG        -25655.6 -24026.1 -18035.4
 S, KJ/(KG)(K)    11.9024  11.9024  11.9024

 M, (1/n)          21.556   21.559   21.561
 (dLV/dLP)t      -1.00006 -1.00002 -1.00000
 (dLV/dLT)p        1.0025   1.0008   1.0000
 Cp, KJ/(KG)(K)    2.1733   2.0828   1.7857
 GAMMAs            1.2170   1.2277   1.2754
 SON VEL,M/SEC      883.1    841.3    663.0
 MACH NUMBER        0.000    1.000    2.627

 PERFORMANCE PARAMETERS

 Ae/At                      1.0000   3.7500
 CSTAR, M/SEC               1226.0   1226.0
 CF                         0.6862   1.4207
 Ivac, M/SEC                1526.5   1939.6
 Isp, M/SEC                  841.3   1741.8


 MOLE FRACTIONS

 *H2              0.00001  0.00000  0.00000
 H2O              0.74589  0.74628  0.74645
 *O               0.00001  0.00000  0.00000
 *OH              0.00079  0.00025  0.00000
 *O2              0.25330  0.25347  0.25355

  * THERMODYNAMIC PROPERTIES FITTED TO 20000.K

    PRODUCTS WHICH WERE CONSIDERED BUT WHOSE MOLE FRACTIONS
    WERE LESS THAN 5.000000E-06 FOR ALL ASSIGNED CONDITIONS

 *H              HO2             H2O2            O3              H2O(cr)        
 H2O(L)         

 NOTE. WEIGHT FRACTION OF FUEL IN TOTAL FUELS AND OF OXIDANT IN TOTAL OXIDANTS





           THEORETICAL ROCKET PERFORMANCE ASSUMING FROZEN COMPOSITION

 Pin =    27.6 PSIA
 CASE =                

             REACTANT                    WT FRACTION      ENERGY      TEMP
                                          (SEE NOTE)     KJ/KG-MOL      K  
 OXIDANT     H2O2                         1.0000000   -135886.358    298.000
 FUEL        H2O                          1.0000000   -241831.038    298.000

 O/F=    4.00000  %FUEL= 20.000000  R,EQ.RATIO= 0.595473  PHI,EQ.RATIO= 0.000000

                 CHAMBER   THROAT     EXIT
 Pinf/P            1.0000   1.7902   23.253
 P, BAR            1.9000   1.0613  0.08171
 T, K             1661.43  1492.67   891.46
 RHO, KG/CU M    2.9649-1 1.8434-1 2.3763-2
 H, KJ/KG        -5880.68 -6234.66 -7395.48
 U, KJ/KG        -6521.51 -6810.40 -7739.33
 G, KJ/KG        -25655.6 -24000.9 -18006.0
 S, KJ/(KG)(K)    11.9024  11.9024  11.9024

 M, (1/n)          21.556   21.556   21.556
 Cp, KJ/(KG)(K)    2.1288   2.0652   1.7845
 GAMMAs            1.2213   1.2297   1.2757
 SON VEL,M/SEC      884.7    841.4    662.3
 MACH NUMBER        0.000    1.000    2.628

 PERFORMANCE PARAMETERS

 Ae/At                      1.0000   3.7500
 CSTAR, M/SEC               1225.0   1225.0
 CF                         0.6869   1.4209
 Ivac, M/SEC                1525.7   1938.1
 Isp, M/SEC                  841.4   1740.6

 MOLE FRACTIONS

 *H2             0.00001   H2O             0.74589   *O              0.00001
 *OH             0.00079   *O2             0.25330

  * THERMODYNAMIC PROPERTIES FITTED TO 20000.K

    PRODUCTS WHICH WERE CONSIDERED BUT WHOSE MOLE FRACTIONS
    WERE LESS THAN 5.000000E-06 FOR ALL ASSIGNED CONDITIONS

 *H              HO2             H2O2            O3              H2O(cr)        
 H2O(L)         

 NOTE. WEIGHT FRACTION OF FUEL IN TOTAL FUELS AND OF OXIDANT IN TOTAL OXIDANTS






 POINT ITN      T            H           O 
   1    3    1662.730     -14.114     -13.251
 Pinf/Pt = 1.783056
   2    3    1496.081     -15.111     -13.365
 Pinf/Pt = 1.789521
   2    2    1495.075     -15.118     -13.366
   3    4     906.624     -21.571     -13.880
   3    2     893.631     -21.809     -13.895
   3    1     893.656     -21.809     -13.895





              THEORETICAL ROCKET PERFORMANCE ASSUMING EQUILIBRIUM

           COMPOSITION DURING EXPANSION FROM INFINITE AREA COMBUSTOR

 Pin =   290.1 PSIA
 CASE =                

             REACTANT                    WT FRACTION      ENERGY      TEMP
                                          (SEE NOTE)     KJ/KG-MOL      K  
 OXIDANT     H2O2                         1.0000000   -135886.358    298.000
 FUEL        H2O                          1.0000000   -241831.038    298.000

 O/F=    4.00000  %FUEL= 20.000000  R,EQ.RATIO= 0.595473  PHI,EQ.RATIO= 0.000000

                 CHAMBER   THROAT     EXIT
 Pinf/P            1.0000   1.7895   23.237
 P, BAR            20.000   11.176  0.86068
 T, K             1662.73  1495.07   893.66
 RHO, KG/CU M    3.1188 0 1.9384 0 2.4975-1
 H, KJ/KG        -5880.68 -6234.82 -7397.72
 U, KJ/KG        -6521.95 -6811.38 -7742.35
 G, KJ/KG        -24161.6 -22672.4 -17223.0
 S, KJ/(KG)(K)    10.9945  10.9945  10.9945

 M, (1/n)          21.558   21.560   21.561
 (dLV/dLP)t      -1.00003 -1.00001 -1.00000
 (dLV/dLT)p        1.0013   1.0005   1.0000
 Cp, KJ/(KG)(K)    2.1534   2.0753   1.7856
 GAMMAs            1.2188   1.2285   1.2755
 SON VEL,M/SEC      884.1    841.6    663.0
 MACH NUMBER        0.000    1.000    2.627

 PERFORMANCE PARAMETERS

 Ae/At                      1.0000   3.7500
 CSTAR, M/SEC               1226.0   1226.0
 CF                         0.6865   1.4208
 Ivac, M/SEC                1526.7   1939.7
 Isp, M/SEC                  841.6   1741.9


 MOLE FRACTIONS

 H2O              0.74614  0.74636  0.74645
 *OH              0.00044  0.00014  0.00000
 *O2              0.25340  0.25350  0.25355

  * THERMODYNAMIC PROPERTIES FITTED TO 20000.K

    PRODUCTS WHICH WERE CONSIDERED BUT WHOSE MOLE FRACTIONS
    WERE LESS THAN 5.000000E-06 FOR ALL ASSIGNED CONDITIONS

 *H              HO2             *H2             H2O2            *O             
 O3              H2O(cr)         H2O(L)         

 NOTE. WEIGHT FRACTION OF FUEL IN TOTAL FUELS AND OF OXIDANT IN TOTAL OXIDANTS





           THEORETICAL ROCKET PERFORMANCE ASSUMING FROZEN COMPOSITION

 Pin =   290.1 PSIA
 CASE =                

             REACTANT                    WT FRACTION      ENERGY      TEMP
                                          (SEE NOTE)     KJ/KG-MOL      K  
 OXIDANT     H2O2                         1.0000000   -135886.358    298.000
 FUEL        H2O                          1.0000000   -241831.038    298.000

 O/F=    4.00000  %FUEL= 20.000000  R,EQ.RATIO= 0.595473  PHI,EQ.RATIO= 0.000000

                 CHAMBER   THROAT     EXIT
 Pinf/P            1.0000   1.7901   23.248
 P, BAR            20.000   11.172  0.86028
 T, K             1662.73  1493.90   892.39
 RHO, KG/CU M    3.1188 0 1.9391 0 2.4996-1
 H, KJ/KG        -5880.68 -6234.88 -7396.59
 U, KJ/KG        -6521.95 -6811.04 -7740.76
 G, KJ/KG        -24161.6 -22659.6 -17208.0
 S, KJ/(KG)(K)    10.9945  10.9945  10.9945

 M, (1/n)          21.558   21.558   21.558
 Cp, KJ/(KG)(K)    2.1292   2.0656   1.7850
 GAMMAs            1.2212   1.2296   1.2756
 SON VEL,M/SEC      884.9    841.7    662.6
 MACH NUMBER        0.000    1.000    2.628

 PERFORMANCE PARAMETERS

 Ae/At                     1.00000   3.7500
 CSTAR, M/SEC               1225.4   1225.4
 CF                         0.6868   1.4209
 Ivac, M/SEC                1526.2   1938.9
 Isp, M/SEC                  841.7   1741.2

 MOLE FRACTIONS

 H2O             0.74614   *OH             0.00044   *O2             0.25340

  * THERMODYNAMIC PROPERTIES FITTED TO 20000.K

    PRODUCTS WHICH WERE CONSIDERED BUT WHOSE MOLE FRACTIONS
    WERE LESS THAN 5.000000E-06 FOR ALL ASSIGNED CONDITIONS

 *H              HO2             *H2             H2O2            *O             
 O3              H2O(cr)         H2O(L)         

 NOTE. WEIGHT FRACTION OF FUEL IN TOTAL FUELS AND OF OXIDANT IN TOTAL OXIDANTS






 O/F =   4.500000

                       EFFECTIVE FUEL     EFFECTIVE OXIDANT        MIXTURE
 ENTHALPY                  h(2)/R              h(1)/R               h0/R
 (KG-MOL)(K)/KG       -0.16144863E+04     -0.48047723E+03     -0.68666070E+03

 KG-FORM.WT./KG             bi(2)               bi(1)               b0i
  *H                   0.11101687E+00      0.58798142E-01      0.68292457E-01
  *O                   0.55508435E-01      0.58798142E-01      0.58200014E-01

 POINT ITN      T            H           O 
   1    4    1693.879     -14.618     -14.532
 Pinf/Pt = 1.780735
   2    3    1526.450     -15.583     -14.647
 Pinf/Pt = 1.788087
   2    2    1525.293     -15.590     -14.648
 Pinf/Pt = 1.788135
   2    1    1525.285     -15.590     -14.648
   3    4     927.990     -21.863     -15.159
   3    2     914.907     -22.092     -15.173
   3    1     914.933     -22.092     -15.173





              THEORETICAL ROCKET PERFORMANCE ASSUMING EQUILIBRIUM

           COMPOSITION DURING EXPANSION FROM INFINITE AREA COMBUSTOR

 Pin =    23.2 PSIA
 CASE =                

             REACTANT                    WT FRACTION      ENERGY      TEMP
                                          (SEE NOTE)     KJ/KG-MOL      K  
 OXIDANT     H2O2                         1.0000000   -135886.358    298.000
 FUEL        H2O                          1.0000000   -241831.038    298.000

 O/F=    4.50000  %FUEL= 18.181818  R,EQ.RATIO= 0.586705  PHI,EQ.RATIO= 0.000000

                 CHAMBER   THROAT     EXIT
 Pinf/P            1.0000   1.7881   23.163
 P, BAR            1.6000  0.89479  0.06908
 T, K             1693.88  1525.29   914.93
 RHO, KG/CU M    2.4598-1 1.5279-1 1.9666-2
 H, KJ/KG        -5709.25 -6068.24 -7250.24
 U, KJ/KG        -6359.72 -6653.86 -7601.49
 G, KJ/KG        -25971.7 -24313.9 -18194.8
 S, KJ/(KG)(K)    11.9622  11.9622  11.9622

 M, (1/n)          21.652   21.656   21.658
 (dLV/dLP)t      -1.00007 -1.00002 -1.00000
 (dLV/dLT)p        1.0033   1.0011   1.0000
 Cp, KJ/(KG)(K)    2.1832   2.0871   1.7866
 GAMMAs            1.2150   1.2260   1.2737
 SON VEL,M/SEC      889.0    847.3    668.9
 MACH NUMBER        0.000    1.000    2.625

 PERFORMANCE PARAMETERS

 Ae/At                      1.0000   3.7500
 CSTAR, M/SEC               1235.8   1235.8
 CF                         0.6856   1.4205
 Ivac, M/SEC                1538.5   1955.6
 Isp, M/SEC                  847.3   1755.6


 MOLE FRACTIONS

 *H2              0.00002  0.00000  0.00000
 H2O              0.73878  0.73929  0.73953
 *O               0.00002  0.00000  0.00000
 *OH              0.00103  0.00034  0.00000
 *O2              0.26014  0.26037  0.26047

  * THERMODYNAMIC PROPERTIES FITTED TO 20000.K

    PRODUCTS WHICH WERE CONSIDERED BUT WHOSE MOLE FRACTIONS
    WERE LESS THAN 5.000000E-06 FOR ALL ASSIGNED CONDITIONS

 *H              HO2             H2O2            O3              H2O(cr)        
 H2O(L)         

 NOTE. WEIGHT FRACTION OF FUEL IN TOTAL FUELS AND OF OXIDANT IN TOTAL OXIDANTS





           THEORETICAL ROCKET PERFORMANCE ASSUMING FROZEN COMPOSITION

 Pin =    23.2 PSIA
 CASE =                

             REACTANT                    WT FRACTION      ENERGY      TEMP
                                          (SEE NOTE)     KJ/KG-MOL      K  
 OXIDANT     H2O2                         1.0000000   -135886.358    298.000
 FUEL        H2O                          1.0000000   -241831.038    298.000

 O/F=    4.50000  %FUEL= 18.181818  R,EQ.RATIO= 0.586705  PHI,EQ.RATIO= 0.000000

                 CHAMBER   THROAT     EXIT
 Pinf/P            1.0000   1.7895   23.189
 P, BAR            1.6000  0.89409  0.06900
 T, K             1693.88  1522.53   911.89
 RHO, KG/CU M    2.4598-1 1.5292-1 1.9704-2
 H, KJ/KG        -5709.25 -6068.40 -7247.57
 U, KJ/KG        -6359.72 -6653.07 -7597.75
 G, KJ/KG        -25971.7 -24281.1 -18155.8
 S, KJ/(KG)(K)    11.9622  11.9622  11.9622

 M, (1/n)          21.652   21.652   21.652
 Cp, KJ/(KG)(K)    2.1267   2.0641   1.7851
 GAMMAs            1.2204   1.2286   1.2741
 SON VEL,M/SEC      891.0    847.5    667.9
 MACH NUMBER        0.000    1.000    2.626

 PERFORMANCE PARAMETERS

 Ae/At                      1.0000   3.7500
 CSTAR, M/SEC               1234.5   1234.5
 CF                         0.6865   1.4208
 Ivac, M/SEC                1537.4   1953.7
 Isp, M/SEC                  847.5   1754.0

 MOLE FRACTIONS

 *H2             0.00002   H2O             0.73878   *O              0.00002
 *OH             0.00103   *O2             0.26014

  * THERMODYNAMIC PROPERTIES FITTED TO 20000.K

    PRODUCTS WHICH WERE CONSIDERED BUT WHOSE MOLE FRACTIONS
    WERE LESS THAN 5.000000E-06 FOR ALL ASSIGNED CONDITIONS

 *H              HO2             H2O2            O3              H2O(cr)        
 H2O(L)         

 NOTE. WEIGHT FRACTION OF FUEL IN TOTAL FUELS AND OF OXIDANT IN TOTAL OXIDANTS






 POINT ITN      T            H           O 
   1    2    1693.938     -14.603     -14.502
 Pinf/Pt = 1.780782
   2    3    1526.459     -15.568     -14.617
 Pinf/Pt = 1.788106
   2    2    1525.306     -15.575     -14.617
 Pinf/Pt = 1.788154
   2    1    1525.298     -15.575     -14.617
   3    4     927.980     -21.848     -15.128
   3    2     914.902     -22.077     -15.143
   3    1     914.928     -22.077     -15.143





              THEORETICAL ROCKET PERFORMANCE ASSUMING EQUILIBRIUM

           COMPOSITION DURING EXPANSION FROM INFINITE AREA COMBUSTOR

 Pin =    24.7 PSIA
 CASE =                

             REACTANT                    WT FRACTION      ENERGY      TEMP
                                          (SEE NOTE)     KJ/KG-MOL      K  
 OXIDANT     H2O2                         1.0000000   -135886.358    298.000
 FUEL        H2O                          1.0000000   -241831.038    298.000

 O/F=    4.50000  %FUEL= 18.181818  R,EQ.RATIO= 0.586705  PHI,EQ.RATIO= 0.000000

                 CHAMBER   THROAT     EXIT
 Pinf/P            1.0000   1.7882   23.163
 P, BAR            1.7000  0.95070  0.07339
 T, K             1693.94  1525.30   914.93
 RHO, KG/CU M    2.6134-1 1.6234-1 2.0895-2
 H, KJ/KG        -5709.25 -6068.25 -7250.25
 U, KJ/KG        -6359.74 -6653.87 -7601.49
 G, KJ/KG        -25933.0 -24278.6 -18173.5
 S, KJ/(KG)(K)    11.9389  11.9389  11.9389

 M, (1/n)          21.652   21.656   21.658
 (dLV/dLP)t      -1.00007 -1.00002 -1.00000
 (dLV/dLT)p        1.0032   1.0011   1.0000
 Cp, KJ/(KG)(K)    2.1823   2.0868   1.7866
 GAMMAs            1.2151   1.2261   1.2737
 SON VEL,M/SEC      889.1    847.4    668.9
 MACH NUMBER        0.000    1.000    2.625

 PERFORMANCE PARAMETERS

 Ae/At                      1.0000   3.7500
 CSTAR, M/SEC               1235.8   1235.8
 CF                         0.6857   1.4206
 Ivac, M/SEC                1538.5   1955.6
 Isp, M/SEC                  847.4   1755.6


 MOLE FRACTIONS

 *H2              0.00002  0.00000  0.00000
 H2O              0.73879  0.73929  0.73953
 *O               0.00002  0.00000  0.00000
 *OH              0.00101  0.00033  0.00000
 *O2              0.26015  0.26037  0.26047

  * THERMODYNAMIC PROPERTIES FITTED TO 20000.K

    PRODUCTS WHICH WERE CONSIDERED BUT WHOSE MOLE FRACTIONS
    WERE LESS THAN 5.000000E-06 FOR ALL ASSIGNED CONDITIONS

 *H              HO2             H2O2            O3              H2O(cr)        
 H2O(L)         

 NOTE. WEIGHT FRACTION OF FUEL IN TOTAL FUELS AND OF OXIDANT IN TOTAL OXIDANTS





           THEORETICAL ROCKET PERFORMANCE ASSUMING FROZEN COMPOSITION

 Pin =    24.7 PSIA
 CASE =                

             REACTANT                    WT FRACTION      ENERGY      TEMP
                                          (SEE NOTE)     KJ/KG-MOL      K  
 OXIDANT     H2O2                         1.0000000   -135886.358    298.000
 FUEL        H2O                          1.0000000   -241831.038    298.000

 O/F=    4.50000  %FUEL= 18.181818  R,EQ.RATIO= 0.586705  PHI,EQ.RATIO= 0.000000

                 CHAMBER   THROAT     EXIT
 Pinf/P            1.0000   1.7895   23.189
 P, BAR            1.7000  0.94997  0.07331
 T, K             1693.94  1522.59   911.93
 RHO, KG/CU M    2.6134-1 1.6247-1 2.0935-2
 H, KJ/KG        -5709.25 -6068.41 -7247.62
 U, KJ/KG        -6359.74 -6653.10 -7597.82
 G, KJ/KG        -25933.0 -24246.4 -18135.1
 S, KJ/(KG)(K)    11.9389  11.9389  11.9389

 M, (1/n)          21.652   21.652   21.652
 Cp, KJ/(KG)(K)    2.1267   2.0642   1.7852
 GAMMAs            1.2204   1.2286   1.2741
 SON VEL,M/SEC      891.0    847.5    668.0
 MACH NUMBER        0.000    1.000    2.626

 PERFORMANCE PARAMETERS

 Ae/At                      1.0000   3.7500
 CSTAR, M/SEC               1234.5   1234.5
 CF                         0.6865   1.4208
 Ivac, M/SEC                1537.4   1953.7
 Isp, M/SEC                  847.5   1754.1

 MOLE FRACTIONS

 *H2             0.00002   H2O             0.73879   *O              0.00002
 *OH             0.00101   *O2             0.26015

  * THERMODYNAMIC PROPERTIES FITTED TO 20000.K

    PRODUCTS WHICH WERE CONSIDERED BUT WHOSE MOLE FRACTIONS
    WERE LESS THAN 5.000000E-06 FOR ALL ASSIGNED CONDITIONS

 *H              HO2             H2O2            O3              H2O(cr)        
 H2O(L)         

 NOTE. WEIGHT FRACTION OF FUEL IN TOTAL FUELS AND OF OXIDANT IN TOTAL OXIDANTS






 POINT ITN      T            H           O 
   1    2    1693.966     -14.595     -14.488
 Pinf/Pt = 1.780805
   2    3    1526.463     -15.560     -14.602
 Pinf/Pt = 1.788115
   2    2    1525.312     -15.568     -14.603
 Pinf/Pt = 1.788163
   2    1    1525.304     -15.568     -14.603
   3    4     927.975     -21.841     -15.114
   3    2     914.900     -22.070     -15.128
   3    1     914.925     -22.069     -15.128





              THEORETICAL ROCKET PERFORMANCE ASSUMING EQUILIBRIUM

           COMPOSITION DURING EXPANSION FROM INFINITE AREA COMBUSTOR

 Pin =    25.4 PSIA
 CASE =                

             REACTANT                    WT FRACTION      ENERGY      TEMP
                                          (SEE NOTE)     KJ/KG-MOL      K  
 OXIDANT     H2O2                         1.0000000   -135886.358    298.000
 FUEL        H2O                          1.0000000   -241831.038    298.000

 O/F=    4.50000  %FUEL= 18.181818  R,EQ.RATIO= 0.586705  PHI,EQ.RATIO= 0.000000

                 CHAMBER   THROAT     EXIT
 Pinf/P            1.0000   1.7882   23.163
 P, BAR            1.7500  0.97866  0.07555
 T, K             1693.97  1525.30   914.93
 RHO, KG/CU M    2.6902-1 1.6711-1 2.1510-2
 H, KJ/KG        -5709.25 -6068.26 -7250.25
 U, KJ/KG        -6359.75 -6653.88 -7601.50
 G, KJ/KG        -25914.4 -24261.7 -18163.3
 S, KJ/(KG)(K)    11.9278  11.9278  11.9278

 M, (1/n)          21.652   21.656   21.658
 (dLV/dLP)t      -1.00007 -1.00002 -1.00000
 (dLV/dLT)p        1.0032   1.0011   1.0000
 Cp, KJ/(KG)(K)    2.1819   2.0866   1.7866
 GAMMAs            1.2152   1.2261   1.2737
 SON VEL,M/SEC      889.1    847.4    668.9
 MACH NUMBER        0.000    1.000    2.625

 PERFORMANCE PARAMETERS

 Ae/At                     1.00000   3.7500
 CSTAR, M/SEC               1235.8   1235.8
 CF                         0.6857   1.4206
 Ivac, M/SEC                1538.5   1955.6
 Isp, M/SEC                  847.4   1755.6


 MOLE FRACTIONS

 *H2              0.00002  0.00000  0.00000
 H2O              0.73880  0.73929  0.73953
 *O               0.00002  0.00000  0.00000
 *OH              0.00101  0.00033  0.00000
 *O2              0.26015  0.26037  0.26047

  * THERMODYNAMIC PROPERTIES FITTED TO 20000.K

    PRODUCTS WHICH WERE CONSIDERED BUT WHOSE MOLE FRACTIONS
    WERE LESS THAN 5.000000E-06 FOR ALL ASSIGNED CONDITIONS

 *H              HO2             H2O2            O3              H2O(cr)        
 H2O(L)         

 NOTE. WEIGHT FRACTION OF FUEL IN TOTAL FUELS AND OF OXIDANT IN TOTAL OXIDANTS





           THEORETICAL ROCKET PERFORMANCE ASSUMING FROZEN COMPOSITION

 Pin =    25.4 PSIA
 CASE =                

             REACTANT                    WT FRACTION      ENERGY      TEMP
                                          (SEE NOTE)     KJ/KG-MOL      K  
 OXIDANT     H2O2                         1.0000000   -135886.358    298.000
 FUEL        H2O                          1.0000000   -241831.038    298.000

 O/F=    4.50000  %FUEL= 18.181818  R,EQ.RATIO= 0.586705  PHI,EQ.RATIO= 0.000000

                 CHAMBER   THROAT     EXIT
 Pinf/P            1.0000   1.7895   23.188
 P, BAR            1.7500  0.97791  0.07547
 T, K             1693.97  1522.61   911.95
 RHO, KG/CU M    2.6902-1 1.6725-1 2.1550-2
 H, KJ/KG        -5709.25 -6068.41 -7247.65
 U, KJ/KG        -6359.75 -6653.11 -7597.85
 G, KJ/KG        -25914.4 -24229.7 -18125.2
 S, KJ/(KG)(K)    11.9278  11.9278  11.9278

 M, (1/n)          21.652   21.652   21.652
 Cp, KJ/(KG)(K)    2.1267   2.0642   1.7852
 GAMMAs            1.2204   1.2286   1.2741
 SON VEL,M/SEC      891.0    847.5    668.0
 MACH NUMBER        0.000    1.000    2.626

 PERFORMANCE PARAMETERS

 Ae/At                      1.0000   3.7500
 CSTAR, M/SEC               1234.5   1234.5
 CF                         0.6865   1.4208
 Ivac, M/SEC                1537.4   1953.7
 Isp, M/SEC                  847.5   1754.1

 MOLE FRACTIONS

 *H2             0.00002   H2O             0.73880   *O              0.00002
 *OH             0.00101   *O2             0.26015

  * THERMODYNAMIC PROPERTIES FITTED TO 20000.K

    PRODUCTS WHICH WERE CONSIDERED BUT WHOSE MOLE FRACTIONS
    WERE LESS THAN 5.000000E-06 FOR ALL ASSIGNED CONDITIONS

 *H              HO2             H2O2            O3              H2O(cr)        
 H2O(L)         

 NOTE. WEIGHT FRACTION OF FUEL IN TOTAL FUELS AND OF OXIDANT IN TOTAL OXIDANTS






 POINT ITN      T            H           O 
   1    2    1693.993     -14.588     -14.473
 Pinf/Pt = 1.780827
   2    3    1526.467     -15.553     -14.588
 Pinf/Pt = 1.788124
   2    2    1525.318     -15.561     -14.589
 Pinf/Pt = 1.788172
   2    1    1525.310     -15.561     -14.589
   3    4     927.971     -21.834     -15.100
   3    2     914.898     -22.063     -15.114
   3    1     914.923     -22.062     -15.114





              THEORETICAL ROCKET PERFORMANCE ASSUMING EQUILIBRIUM

           COMPOSITION DURING EXPANSION FROM INFINITE AREA COMBUSTOR

 Pin =    26.1 PSIA
 CASE =                

             REACTANT                    WT FRACTION      ENERGY      TEMP
                                          (SEE NOTE)     KJ/KG-MOL      K  
 OXIDANT     H2O2                         1.0000000   -135886.358    298.000
 FUEL        H2O                          1.0000000   -241831.038    298.000

 O/F=    4.50000  %FUEL= 18.181818  R,EQ.RATIO= 0.586705  PHI,EQ.RATIO= 0.000000

                 CHAMBER   THROAT     EXIT
 Pinf/P            1.0000   1.7882   23.163
 P, BAR            1.8000   1.0066  0.07771
 T, K             1693.99  1525.31   914.92
 RHO, KG/CU M    2.7671-1 1.7189-1 2.2124-2
 H, KJ/KG        -5709.25 -6068.26 -7250.25
 U, KJ/KG        -6359.76 -6653.89 -7601.50
 G, KJ/KG        -25896.4 -24245.3 -18153.3
 S, KJ/(KG)(K)    11.9169  11.9169  11.9169

 M, (1/n)          21.652   21.656   21.658
 (dLV/dLP)t      -1.00007 -1.00002 -1.00000
 (dLV/dLT)p        1.0032   1.0011   1.0000
 Cp, KJ/(KG)(K)    2.1815   2.0865   1.7866
 GAMMAs            1.2152   1.2261   1.2737
 SON VEL,M/SEC      889.1    847.4    668.9
 MACH NUMBER        0.000    1.000    2.625

 PERFORMANCE PARAMETERS

 Ae/At                      1.0000   3.7500
 CSTAR, M/SEC               1235.8   1235.8
 CF                         0.6857   1.4206
 Ivac, M/SEC                1538.5   1955.6
 Isp, M/SEC                  847.4   1755.6


 MOLE FRACTIONS

 *H2              0.00002  0.00000  0.00000
 H2O              0.73881  0.73930  0.73953
 *O               0.00002  0.00000  0.00000
 *OH              0.00100  0.00033  0.00000
 *O2              0.26015  0.26037  0.26047

  * THERMODYNAMIC PROPERTIES FITTED TO 20000.K

    PRODUCTS WHICH WERE CONSIDERED BUT WHOSE MOLE FRACTIONS
    WERE LESS THAN 5.000000E-06 FOR ALL ASSIGNED CONDITIONS

 *H              HO2             H2O2            O3              H2O(cr)        
 H2O(L)         

 NOTE. WEIGHT FRACTION OF FUEL IN TOTAL FUELS AND OF OXIDANT IN TOTAL OXIDANTS





           THEORETICAL ROCKET PERFORMANCE ASSUMING FROZEN COMPOSITION

 Pin =    26.1 PSIA
 CASE =                

             REACTANT                    WT FRACTION      ENERGY      TEMP
                                          (SEE NOTE)     KJ/KG-MOL      K  
 OXIDANT     H2O2                         1.0000000   -135886.358    298.000
 FUEL        H2O                          1.0000000   -241831.038    298.000

 O/F=    4.50000  %FUEL= 18.181818  R,EQ.RATIO= 0.586705  PHI,EQ.RATIO= 0.000000

                 CHAMBER   THROAT     EXIT
 Pinf/P            1.0000   1.7895   23.188
 P, BAR            1.8000   1.0059  0.07763
 T, K             1693.99  1522.64   911.97
 RHO, KG/CU M    2.7671-1 1.7203-1 2.2166-2
 H, KJ/KG        -5709.25 -6068.42 -7247.67
 U, KJ/KG        -6359.76 -6653.13 -7597.88
 G, KJ/KG        -25896.4 -24213.6 -18115.6
 S, KJ/(KG)(K)    11.9169  11.9169  11.9169

 M, (1/n)          21.652   21.652   21.652
 Cp, KJ/(KG)(K)    2.1267   2.0642   1.7852
 GAMMAs            1.2203   1.2286   1.2741
 SON VEL,M/SEC      891.0    847.6    668.0
 MACH NUMBER        0.000    1.000    2.626

 PERFORMANCE PARAMETERS

 Ae/At                      1.0000   3.7500
 CSTAR, M/SEC               1234.6   1234.6
 CF                         0.6865   1.4208
 Ivac, M/SEC                1537.4   1953.7
 Isp, M/SEC                  847.6   1754.1

 MOLE FRACTIONS

 *H2             0.00002   H2O             0.73881   *O              0.00002
 *OH             0.00100   *O2             0.26015

  * THERMODYNAMIC PROPERTIES FITTED TO 20000.K

    PRODUCTS WHICH WERE CONSIDERED BUT WHOSE MOLE FRACTIONS
    WERE LESS THAN 5.000000E-06 FOR ALL ASSIGNED CONDITIONS

 *H              HO2             H2O2            O3              H2O(cr)        
 H2O(L)         

 NOTE. WEIGHT FRACTION OF FUEL IN TOTAL FUELS AND OF OXIDANT IN TOTAL OXIDANTS






 POINT ITN      T            H           O 
   1    1    1693.998     -14.587     -14.471
 Pinf/Pt = 1.780831
   2    3    1526.468     -15.552     -14.585
 Pinf/Pt = 1.788126
   2    2    1525.319     -15.559     -14.586
 Pinf/Pt = 1.788173
   2    1    1525.311     -15.559     -14.586
   3    4     927.970     -21.833     -15.097
   3    2     914.897     -22.062     -15.112
   3    1     914.923     -22.061     -15.112





              THEORETICAL ROCKET PERFORMANCE ASSUMING EQUILIBRIUM

           COMPOSITION DURING EXPANSION FROM INFINITE AREA COMBUSTOR

 Pin =    26.3 PSIA
 CASE =                

             REACTANT                    WT FRACTION      ENERGY      TEMP
                                          (SEE NOTE)     KJ/KG-MOL      K  
 OXIDANT     H2O2                         1.0000000   -135886.358    298.000
 FUEL        H2O                          1.0000000   -241831.038    298.000

 O/F=    4.50000  %FUEL= 18.181818  R,EQ.RATIO= 0.586705  PHI,EQ.RATIO= 0.000000

                 CHAMBER   THROAT     EXIT
 Pinf/P            1.0000   1.7882   23.163
 P, BAR            1.8100   1.0122  0.07814
 T, K             1694.00  1525.31   914.92
 RHO, KG/CU M    2.7824-1 1.7284-1 2.2247-2
 H, KJ/KG        -5709.25 -6068.26 -7250.26
 U, KJ/KG        -6359.76 -6653.89 -7601.50
 G, KJ/KG        -25892.9 -24242.0 -18151.4
 S, KJ/(KG)(K)    11.9148  11.9148  11.9148

 M, (1/n)          21.652   21.656   21.658
 (dLV/dLP)t      -1.00007 -1.00002 -1.00000
 (dLV/dLT)p        1.0032   1.0011   1.0000
 Cp, KJ/(KG)(K)    2.1814   2.0865   1.7866
 GAMMAs            1.2152   1.2261   1.2737
 SON VEL,M/SEC      889.1    847.4    668.9
 MACH NUMBER        0.000    1.000    2.625

 PERFORMANCE PARAMETERS

 Ae/At                      1.0000   3.7500
 CSTAR, M/SEC               1235.8   1235.8
 CF                         0.6857   1.4206
 Ivac, M/SEC                1538.5   1955.6
 Isp, M/SEC                  847.4   1755.6


 MOLE FRACTIONS

 *H2              0.00002  0.00000  0.00000
 H2O              0.73881  0.73930  0.73953
 *O               0.00002  0.00000  0.00000
 *OH              0.00100  0.00033  0.00000
 *O2              0.26015  0.26037  0.26047

  * THERMODYNAMIC PROPERTIES FITTED TO 20000.K

    PRODUCTS WHICH WERE CONSIDERED BUT WHOSE MOLE FRACTIONS
    WERE LESS THAN 5.000000E-06 FOR ALL ASSIGNED CONDITIONS

 *H              HO2             H2O2            O3              H2O(cr)        
 H2O(L)         

 NOTE. WEIGHT FRACTION OF FUEL IN TOTAL FUELS AND OF OXIDANT IN TOTAL OXIDANTS





           THEORETICAL ROCKET PERFORMANCE ASSUMING FROZEN COMPOSITION

 Pin =    26.3 PSIA
 CASE =                

             REACTANT                    WT FRACTION      ENERGY      TEMP
                                          (SEE NOTE)     KJ/KG-MOL      K  
 OXIDANT     H2O2                         1.0000000   -135886.358    298.000
 FUEL        H2O                          1.0000000   -241831.038    298.000

 O/F=    4.50000  %FUEL= 18.181818  R,EQ.RATIO= 0.586705  PHI,EQ.RATIO= 0.000000

                 CHAMBER   THROAT     EXIT
 Pinf/P            1.0000   1.7895   23.188
 P, BAR            1.8100   1.0114  0.07806
 T, K             1694.00  1522.64   911.98
 RHO, KG/CU M    2.7824-1 1.7298-1 2.2289-2
 H, KJ/KG        -5709.25 -6068.42 -7247.68
 U, KJ/KG        -6359.76 -6653.13 -7597.88
 G, KJ/KG        -25892.9 -24210.4 -18113.7
 S, KJ/(KG)(K)    11.9148  11.9148  11.9148

 M, (1/n)          21.652   21.652   21.652
 Cp, KJ/(KG)(K)    2.1267   2.0642   1.7852
 GAMMAs            1.2203   1.2286   1.2741
 SON VEL,M/SEC      891.0    847.6    668.0
 MACH NUMBER        0.000    1.000    2.626

 PERFORMANCE PARAMETERS

 Ae/At                      1.0000   3.7500
 CSTAR, M/SEC               1234.6   1234.6
 CF                         0.6865   1.4208
 Ivac, M/SEC                1537.4   1953.7
 Isp, M/SEC                  847.6   1754.1

 MOLE FRACTIONS

 *H2             0.00002   H2O             0.73881   *O              0.00002
 *OH             0.00100   *O2             0.26015

  * THERMODYNAMIC PROPERTIES FITTED TO 20000.K

    PRODUCTS WHICH WERE CONSIDERED BUT WHOSE MOLE FRACTIONS
    WERE LESS THAN 5.000000E-06 FOR ALL ASSIGNED CONDITIONS

 *H              HO2             H2O2            O3              H2O(cr)        
 H2O(L)         

 NOTE. WEIGHT FRACTION OF FUEL IN TOTAL FUELS AND OF OXIDANT IN TOTAL OXIDANTS






 POINT ITN      T            H           O 
   1    2    1694.018     -14.581     -14.460
 Pinf/Pt = 1.780848
   2    3    1526.471     -15.547     -14.574
 Pinf/Pt = 1.788132
   2    2    1525.323     -15.554     -14.575
 Pinf/Pt = 1.788180
   2    1    1525.316     -15.554     -14.575
   3    4     927.966     -21.828     -15.086
   3    2     914.896     -22.056     -15.101
   3    1     914.921     -22.056     -15.101





              THEORETICAL ROCKET PERFORMANCE ASSUMING EQUILIBRIUM

           COMPOSITION DURING EXPANSION FROM INFINITE AREA COMBUSTOR

 Pin =    26.8 PSIA
 CASE =                

             REACTANT                    WT FRACTION      ENERGY      TEMP
                                          (SEE NOTE)     KJ/KG-MOL      K  
 OXIDANT     H2O2                         1.0000000   -135886.358    298.000
 FUEL        H2O                          1.0000000   -241831.038    298.000

 O/F=    4.50000  %FUEL= 18.181818  R,EQ.RATIO= 0.586705  PHI,EQ.RATIO= 0.000000

                 CHAMBER   THROAT     EXIT
 Pinf/P            1.0000   1.7882   23.163
 P, BAR            1.8500   1.0346  0.07987
 T, K             1694.02  1525.32   914.92
 RHO, KG/CU M    2.8439-1 1.7666-1 2.2739-2
 H, KJ/KG        -5709.25 -6068.27 -7250.26
 U, KJ/KG        -6359.77 -6653.90 -7601.50
 G, KJ/KG        -25878.9 -24229.3 -18143.7
 S, KJ/(KG)(K)    11.9064  11.9064  11.9064

 M, (1/n)          21.652   21.656   21.658
 (dLV/dLP)t      -1.00007 -1.00002 -1.00000
 (dLV/dLT)p        1.0032   1.0011   1.0000
 Cp, KJ/(KG)(K)    2.1811   2.0863   1.7866
 GAMMAs            1.2152   1.2261   1.2737
 SON VEL,M/SEC      889.1    847.4    668.9
 MACH NUMBER        0.000    1.000    2.625

 PERFORMANCE PARAMETERS

 Ae/At                      1.0000   3.7500
 CSTAR, M/SEC               1235.8   1235.8
 CF                         0.6857   1.4206
 Ivac, M/SEC                1538.5   1955.6
 Isp, M/SEC                  847.4   1755.6


 MOLE FRACTIONS

 *H2              0.00002  0.00000  0.00000
 H2O              0.73881  0.73930  0.73953
 *O               0.00002  0.00000  0.00000
 *OH              0.00099  0.00033  0.00000
 *O2              0.26016  0.26037  0.26047

  * THERMODYNAMIC PROPERTIES FITTED TO 20000.K

    PRODUCTS WHICH WERE CONSIDERED BUT WHOSE MOLE FRACTIONS
    WERE LESS THAN 5.000000E-06 FOR ALL ASSIGNED CONDITIONS

 *H              HO2             H2O2            O3              H2O(cr)        
 H2O(L)         

 NOTE. WEIGHT FRACTION OF FUEL IN TOTAL FUELS AND OF OXIDANT IN TOTAL OXIDANTS





           THEORETICAL ROCKET PERFORMANCE ASSUMING FROZEN COMPOSITION

 Pin =    26.8 PSIA
 CASE =                

             REACTANT                    WT FRACTION      ENERGY      TEMP
                                          (SEE NOTE)     KJ/KG-MOL      K  
 OXIDANT     H2O2                         1.0000000   -135886.358    298.000
 FUEL        H2O                          1.0000000   -241831.038    298.000

 O/F=    4.50000  %FUEL= 18.181818  R,EQ.RATIO= 0.586705  PHI,EQ.RATIO= 0.000000

                 CHAMBER   THROAT     EXIT
 Pinf/P            1.0000   1.7895   23.188
 P, BAR            1.8500   1.0338  0.07978
 T, K             1694.02  1522.66   911.99
 RHO, KG/CU M    2.8439-1 1.7680-1 2.2781-2
 H, KJ/KG        -5709.25 -6068.42 -7247.69
 U, KJ/KG        -6359.77 -6653.14 -7597.91
 G, KJ/KG        -25878.9 -24197.9 -18106.2
 S, KJ/(KG)(K)    11.9064  11.9064  11.9064

 M, (1/n)          21.652   21.652   21.652
 Cp, KJ/(KG)(K)    2.1268   2.0642   1.7852
 GAMMAs            1.2203   1.2286   1.2741
 SON VEL,M/SEC      891.0    847.6    668.0
 MACH NUMBER        0.000    1.000    2.626

 PERFORMANCE PARAMETERS

 Ae/At                      1.0000   3.7500
 CSTAR, M/SEC               1234.6   1234.6
 CF                         0.6865   1.4208
 Ivac, M/SEC                1537.4   1953.8
 Isp, M/SEC                  847.6   1754.1

 MOLE FRACTIONS

 *H2             0.00002   H2O             0.73881   *O              0.00002
 *OH             0.00099   *O2             0.26016

  * THERMODYNAMIC PROPERTIES FITTED TO 20000.K

    PRODUCTS WHICH WERE CONSIDERED BUT WHOSE MOLE FRACTIONS
    WERE LESS THAN 5.000000E-06 FOR ALL ASSIGNED CONDITIONS

 *H              HO2             H2O2            O3              H2O(cr)        
 H2O(L)         

 NOTE. WEIGHT FRACTION OF FUEL IN TOTAL FUELS AND OF OXIDANT IN TOTAL OXIDANTS






 POINT ITN      T            H           O 
   1    2    1694.043     -14.574     -14.446
 Pinf/Pt = 1.780868
   2    3    1526.474     -15.540     -14.561
 Pinf/Pt = 1.788141
   2    2    1525.329     -15.547     -14.562
 Pinf/Pt = 1.788188
   2    1    1525.321     -15.547     -14.562
   3    4     927.962     -21.821     -15.073
   3    2     914.894     -22.049     -15.087
   3    1     914.919     -22.049     -15.087





              THEORETICAL ROCKET PERFORMANCE ASSUMING EQUILIBRIUM

           COMPOSITION DURING EXPANSION FROM INFINITE AREA COMBUSTOR

 Pin =    27.6 PSIA
 CASE =                

             REACTANT                    WT FRACTION      ENERGY      TEMP
                                          (SEE NOTE)     KJ/KG-MOL      K  
 OXIDANT     H2O2                         1.0000000   -135886.358    298.000
 FUEL        H2O                          1.0000000   -241831.038    298.000

 O/F=    4.50000  %FUEL= 18.181818  R,EQ.RATIO= 0.586705  PHI,EQ.RATIO= 0.000000

                 CHAMBER   THROAT     EXIT
 Pinf/P            1.0000   1.7882   23.163
 P, BAR            1.9000   1.0625  0.08203
 T, K             1694.04  1525.32   914.92
 RHO, KG/CU M    2.9207-1 1.8143-1 2.3353-2
 H, KJ/KG        -5709.25 -6068.27 -7250.26
 U, KJ/KG        -6359.77 -6653.90 -7601.51
 G, KJ/KG        -25861.9 -24213.8 -18134.3
 S, KJ/(KG)(K)    11.8962  11.8962  11.8962

 M, (1/n)          21.652   21.656   21.658
 (dLV/dLP)t      -1.00007 -1.00002 -1.00000
 (dLV/dLT)p        1.0031   1.0011   1.0000
 Cp, KJ/(KG)(K)    2.1807   2.0862   1.7866
 GAMMAs            1.2153   1.2261   1.2737
 SON VEL,M/SEC      889.1    847.4    668.9
 MACH NUMBER        0.000    1.000    2.625

 PERFORMANCE PARAMETERS

 Ae/At                      1.0000   3.7500
 CSTAR, M/SEC               1235.8   1235.8
 CF                         0.6857   1.4206
 Ivac, M/SEC                1538.5   1955.6
 Isp, M/SEC                  847.4   1755.6


 MOLE FRACTIONS

 *H2              0.00002  0.00000  0.00000
 H2O              0.73882  0.73930  0.73953
 *O               0.00002  0.00000  0.00000
 *OH              0.00099  0.00032  0.00000
 *O2              0.26016  0.26037  0.26047

  * THERMODYNAMIC PROPERTIES FITTED TO 20000.K

    PRODUCTS WHICH WERE CONSIDERED BUT WHOSE MOLE FRACTIONS
    WERE LESS THAN 5.000000E-06 FOR ALL ASSIGNED CONDITIONS

 *H              HO2             H2O2            O3              H2O(cr)        
 H2O(L)         

 NOTE. WEIGHT FRACTION OF FUEL IN TOTAL FUELS AND OF OXIDANT IN TOTAL OXIDANTS





           THEORETICAL ROCKET PERFORMANCE ASSUMING FROZEN COMPOSITION

 Pin =    27.6 PSIA
 CASE =                

             REACTANT                    WT FRACTION      ENERGY      TEMP
                                          (SEE NOTE)     KJ/KG-MOL      K  
 OXIDANT     H2O2                         1.0000000   -135886.358    298.000
 FUEL        H2O                          1.0000000   -241831.038    298.000

 O/F=    4.50000  %FUEL= 18.181818  R,EQ.RATIO= 0.586705  PHI,EQ.RATIO= 0.000000

                 CHAMBER   THROAT     EXIT
 Pinf/P            1.0000   1.7895   23.188
 P, BAR            1.9000   1.0617  0.08194
 T, K             1694.04  1522.69   912.01
 RHO, KG/CU M    2.9207-1 1.8158-1 2.3396-2
 H, KJ/KG        -5709.25 -6068.43 -7247.71
 U, KJ/KG        -6359.77 -6653.15 -7597.93
 G, KJ/KG        -25861.9 -24182.5 -18097.1
 S, KJ/(KG)(K)    11.8962  11.8962  11.8962

 M, (1/n)          21.652   21.652   21.652
 Cp, KJ/(KG)(K)    2.1268   2.0642   1.7852
 GAMMAs            1.2203   1.2285   1.2741
 SON VEL,M/SEC      891.0    847.6    668.0
 MACH NUMBER        0.000    1.000    2.626

 PERFORMANCE PARAMETERS

 Ae/At                      1.0000   3.7500
 CSTAR, M/SEC               1234.6   1234.6
 CF                         0.6865   1.4208
 Ivac, M/SEC                1537.5   1953.8
 Isp, M/SEC                  847.6   1754.1

 MOLE FRACTIONS

 *H2             0.00002   H2O             0.73882   *O              0.00002
 *OH             0.00099   *O2             0.26016

  * THERMODYNAMIC PROPERTIES FITTED TO 20000.K

    PRODUCTS WHICH WERE CONSIDERED BUT WHOSE MOLE FRACTIONS
    WERE LESS THAN 5.000000E-06 FOR ALL ASSIGNED CONDITIONS

 *H              HO2             H2O2            O3              H2O(cr)        
 H2O(L)         

 NOTE. WEIGHT FRACTION OF FUEL IN TOTAL FUELS AND OF OXIDANT IN TOTAL OXIDANTS






 POINT ITN      T            H           O 
   1    3    1695.683     -13.979     -13.271
 Pinf/Pt = 1.782194
   2    3    1526.717     -14.950     -13.385
 Pinf/Pt = 1.788676
   2    2    1525.692     -14.957     -13.385
   3    4     927.676     -21.237     -13.896
   3    2     914.759     -21.463     -13.910
   3    1     914.784     -21.463     -13.910





              THEORETICAL ROCKET PERFORMANCE ASSUMING EQUILIBRIUM

           COMPOSITION DURING EXPANSION FROM INFINITE AREA COMBUSTOR

 Pin =   290.1 PSIA
 CASE =                

             REACTANT                    WT FRACTION      ENERGY      TEMP
                                          (SEE NOTE)     KJ/KG-MOL      K  
 OXIDANT     H2O2                         1.0000000   -135886.358    298.000
 FUEL        H2O                          1.0000000   -241831.038    298.000

 O/F=    4.50000  %FUEL= 18.181818  R,EQ.RATIO= 0.586705  PHI,EQ.RATIO= 0.000000

                 CHAMBER   THROAT     EXIT
 Pinf/P            1.0000   1.7887   23.168
 P, BAR            20.000   11.181  0.86324
 T, K             1695.68  1525.69   914.78
 RHO, KG/CU M    3.0718 0 1.9089 0 2.4580-1
 H, KJ/KG        -5709.25 -6068.62 -7250.50
 U, KJ/KG        -6360.32 -6654.37 -7601.70
 G, KJ/KG        -24348.7 -22839.5 -17306.1
 S, KJ/(KG)(K)    10.9923  10.9923  10.9923

 M, (1/n)          21.655   21.657   21.658
 (dLV/dLP)t      -1.00004 -1.00001 -1.00000
 (dLV/dLT)p        1.0017   1.0006   1.0000
 Cp, KJ/(KG)(K)    2.1566   2.0768   1.7865
 GAMMAs            1.2174   1.2271   1.2737
 SON VEL,M/SEC      890.3    847.8    668.8
 MACH NUMBER        0.000    1.000    2.625

 PERFORMANCE PARAMETERS

 Ae/At                      1.0000   3.7500
 CSTAR, M/SEC               1235.8   1235.8
 CF                         0.6860   1.4207
 Ivac, M/SEC                1538.7   1955.7
 Isp, M/SEC                  847.8   1755.7


 MOLE FRACTIONS

 *H2              0.00001  0.00000  0.00000
 H2O              0.73913  0.73940  0.73953
 *OH              0.00055  0.00018  0.00000
 *O2              0.26029  0.26042  0.26047

  * THERMODYNAMIC PROPERTIES FITTED TO 20000.K

    PRODUCTS WHICH WERE CONSIDERED BUT WHOSE MOLE FRACTIONS
    WERE LESS THAN 5.000000E-06 FOR ALL ASSIGNED CONDITIONS

 *H              HO2             H2O2            *O              O3             
 H2O(cr)         H2O(L)         

 NOTE. WEIGHT FRACTION OF FUEL IN TOTAL FUELS AND OF OXIDANT IN TOTAL OXIDANTS





           THEORETICAL ROCKET PERFORMANCE ASSUMING FROZEN COMPOSITION

 Pin =   290.1 PSIA
 CASE =                

             REACTANT                    WT FRACTION      ENERGY      TEMP
                                          (SEE NOTE)     KJ/KG-MOL      K  
 OXIDANT     H2O2                         1.0000000   -135886.358    298.000
 FUEL        H2O                          1.0000000   -241831.038    298.000

 O/F=    4.50000  %FUEL= 18.181818  R,EQ.RATIO= 0.586705  PHI,EQ.RATIO= 0.000000

                 CHAMBER   THROAT     EXIT
 Pinf/P            1.0000   1.7894   23.182
 P, BAR            20.000   11.177  0.86273
 T, K             1695.68  1524.24   913.18
 RHO, KG/CU M    3.0718 0 1.9098 0 2.4605-1
 H, KJ/KG        -5709.25 -6068.70 -7249.10
 U, KJ/KG        -6360.32 -6653.95 -7599.72
 G, KJ/KG        -24348.7 -22823.6 -17287.1
 S, KJ/(KG)(K)    10.9923  10.9923  10.9923

 M, (1/n)          21.655   21.655   21.655
 Cp, KJ/(KG)(K)    2.1273   2.0648   1.7857
 GAMMAs            1.2202   1.2284   1.2739
 SON VEL,M/SEC      891.3    847.9    668.3
 MACH NUMBER        0.000    1.000    2.626

 PERFORMANCE PARAMETERS

 Ae/At                      1.0000   3.7500
 CSTAR, M/SEC               1235.1   1235.1
 CF                         0.6865   1.4208
 Ivac, M/SEC                1538.1   1954.7
 Isp, M/SEC                  847.9   1754.9

 MOLE FRACTIONS

 *H2             0.00001   H2O             0.73913   *OH             0.00055
 *O2             0.26029

  * THERMODYNAMIC PROPERTIES FITTED TO 20000.K

    PRODUCTS WHICH WERE CONSIDERED BUT WHOSE MOLE FRACTIONS
    WERE LESS THAN 5.000000E-06 FOR ALL ASSIGNED CONDITIONS

 *H              HO2             H2O2            *O              O3             
 H2O(cr)         H2O(L)         

 NOTE. WEIGHT FRACTION OF FUEL IN TOTAL FUELS AND OF OXIDANT IN TOTAL OXIDANTS






 O/F =   5.000000

                       EFFECTIVE FUEL     EFFECTIVE OXIDANT        MIXTURE
 ENTHALPY                  h(2)/R              h(1)/R               h0/R
 (KG-MOL)(K)/KG       -0.16144863E+04     -0.48047723E+03     -0.66947874E+03

 KG-FORM.WT./KG             bi(2)               bi(1)               b0i
  *H                   0.11101687E+00      0.58798142E-01      0.67501264E-01
  *O                   0.55508435E-01      0.58798142E-01      0.58249858E-01

 POINT ITN      T            H           O 
   1    3    1721.092     -14.511     -14.548
 Pinf/Pt = 1.779795
   2    3    1552.038     -15.454     -14.663
 Pinf/Pt = 1.787282
   2    2    1550.845     -15.461     -14.664
 Pinf/Pt = 1.787331
   2    1    1550.837     -15.462     -14.664
   3    4     945.721     -21.595     -15.172
   3    2     932.671     -21.814     -15.186
   3    1     932.696     -21.814     -15.186





              THEORETICAL ROCKET PERFORMANCE ASSUMING EQUILIBRIUM

           COMPOSITION DURING EXPANSION FROM INFINITE AREA COMBUSTOR

 Pin =    23.2 PSIA
 CASE =                

             REACTANT                    WT FRACTION      ENERGY      TEMP
                                          (SEE NOTE)     KJ/KG-MOL      K  
 OXIDANT     H2O2                         1.0000000   -135886.358    298.000
 FUEL        H2O                          1.0000000   -241831.038    298.000

 O/F=    5.00000  %FUEL= 16.666667  R,EQ.RATIO= 0.579411  PHI,EQ.RATIO= 0.000000

                 CHAMBER   THROAT     EXIT
 Pinf/P            1.0000   1.7873   23.105
 P, BAR            1.6000  0.89519  0.06925
 T, K             1721.09  1550.84   932.70
 RHO, KG/CU M    2.4298-1 1.5091-1 1.9412-2
 H, KJ/KG        -5566.39 -5929.64 -7127.42
 U, KJ/KG        -6224.87 -6522.85 -7484.15
 G, KJ/KG        -26143.8 -24471.5 -18278.8
 S, KJ/(KG)(K)    11.9560  11.9560  11.9560

 M, (1/n)          21.732   21.737   21.739
 (dLV/dLP)t      -1.00009 -1.00003 -1.00000
 (dLV/dLT)p        1.0039   1.0014   1.0000
 Cp, KJ/(KG)(K)    2.1906   2.0905   1.7873
 GAMMAs            1.2135   1.2247   1.2723
 SON VEL,M/SEC      893.9    852.3    673.7
 MACH NUMBER        0.000    1.000    2.623

 PERFORMANCE PARAMETERS

 Ae/At                      1.0000   3.7500
 CSTAR, M/SEC               1243.9   1243.9
 CF                         0.6852   1.4204
 Ivac, M/SEC                1548.3   1968.8
 Isp, M/SEC                  852.3   1766.9


 MOLE FRACTIONS

 *H2              0.00003  0.00001  0.00000
 H2O              0.73281  0.73341  0.73371
 *O               0.00002  0.00000  0.00000
 *OH              0.00124  0.00042  0.00000
 *O2              0.26590  0.26616  0.26629

  * THERMODYNAMIC PROPERTIES FITTED TO 20000.K

    PRODUCTS WHICH WERE CONSIDERED BUT WHOSE MOLE FRACTIONS
    WERE LESS THAN 5.000000E-06 FOR ALL ASSIGNED CONDITIONS

 *H              HO2             H2O2            O3              H2O(cr)        
 H2O(L)         

 NOTE. WEIGHT FRACTION OF FUEL IN TOTAL FUELS AND OF OXIDANT IN TOTAL OXIDANTS





           THEORETICAL ROCKET PERFORMANCE ASSUMING FROZEN COMPOSITION

 Pin =    23.2 PSIA
 CASE =                

             REACTANT                    WT FRACTION      ENERGY      TEMP
                                          (SEE NOTE)     KJ/KG-MOL      K  
 OXIDANT     H2O2                         1.0000000   -135886.358    298.000
 FUEL        H2O                          1.0000000   -241831.038    298.000

 O/F=    5.00000  %FUEL= 16.666667  R,EQ.RATIO= 0.579411  PHI,EQ.RATIO= 0.000000

                 CHAMBER   THROAT     EXIT
 Pinf/P            1.0000   1.7890   23.137
 P, BAR            1.6000  0.89436  0.06915
 T, K             1721.09  1547.56   929.02
 RHO, KG/CU M    2.4298-1 1.5105-1 1.9456-2
 H, KJ/KG        -5566.39 -5929.84 -7124.26
 U, KJ/KG        -6224.87 -6521.93 -7479.70
 G, KJ/KG        -26143.8 -24432.5 -18231.7
 S, KJ/(KG)(K)    11.9560  11.9560  11.9560

 M, (1/n)          21.732   21.732   21.732
 Cp, KJ/(KG)(K)    2.1247   2.0630   1.7855
 GAMMAs            1.2196   1.2277   1.2727
 SON VEL,M/SEC      896.2    852.6    672.6
 MACH NUMBER        0.000    1.000    2.624

 PERFORMANCE PARAMETERS

 Ae/At                      1.0000   3.7500
 CSTAR, M/SEC               1242.4   1242.4
 CF                         0.6862   1.4208
 Ivac, M/SEC                1547.1   1966.5
 Isp, M/SEC                  852.6   1765.1

 MOLE FRACTIONS

 *H2             0.00003   H2O             0.73281   *O              0.00002
 *OH             0.00124   *O2             0.26590

  * THERMODYNAMIC PROPERTIES FITTED TO 20000.K

    PRODUCTS WHICH WERE CONSIDERED BUT WHOSE MOLE FRACTIONS
    WERE LESS THAN 5.000000E-06 FOR ALL ASSIGNED CONDITIONS

 *H              HO2             H2O2            O3              H2O(cr)        
 H2O(L)         

 NOTE. WEIGHT FRACTION OF FUEL IN TOTAL FUELS AND OF OXIDANT IN TOTAL OXIDANTS






 POINT ITN      T            H           O 
   1    2    1721.163     -14.496     -14.518
 Pinf/Pt = 1.779850
   2    3    1552.050     -15.439     -14.633
 Pinf/Pt = 1.787304
   2    2    1550.862     -15.446     -14.633
 Pinf/Pt = 1.787354
   2    1    1550.854     -15.446     -14.633
   3    4     945.709     -21.580     -15.142
   3    2     932.665     -21.799     -15.156
   3    1     932.690     -21.799     -15.156





              THEORETICAL ROCKET PERFORMANCE ASSUMING EQUILIBRIUM

           COMPOSITION DURING EXPANSION FROM INFINITE AREA COMBUSTOR

 Pin =    24.7 PSIA
 CASE =                

             REACTANT                    WT FRACTION      ENERGY      TEMP
                                          (SEE NOTE)     KJ/KG-MOL      K  
 OXIDANT     H2O2                         1.0000000   -135886.358    298.000
 FUEL        H2O                          1.0000000   -241831.038    298.000

 O/F=    5.00000  %FUEL= 16.666667  R,EQ.RATIO= 0.579411  PHI,EQ.RATIO= 0.000000

                 CHAMBER   THROAT     EXIT
 Pinf/P            1.0000   1.7874   23.106
 P, BAR            1.7000  0.95113  0.07358
 T, K             1721.16  1550.85   932.69
 RHO, KG/CU M    2.5816-1 1.6033-1 2.0625-2
 H, KJ/KG        -5566.39 -5929.65 -7127.43
 U, KJ/KG        -6224.90 -6522.87 -7484.15
 G, KJ/KG        -26104.8 -24435.8 -18257.1
 S, KJ/(KG)(K)    11.9329  11.9329  11.9329

 M, (1/n)          21.732   21.737   21.739
 (dLV/dLP)t      -1.00009 -1.00003 -1.00000
 (dLV/dLT)p        1.0039   1.0014   1.0000
 Cp, KJ/(KG)(K)    2.1896   2.0901   1.7873
 GAMMAs            1.2136   1.2247   1.2723
 SON VEL,M/SEC      894.0    852.4    673.7
 MACH NUMBER        0.000    1.000    2.623

 PERFORMANCE PARAMETERS

 Ae/At                      1.0000   3.7500
 CSTAR, M/SEC               1243.9   1243.9
 CF                         0.6852   1.4204
 Ivac, M/SEC                1548.3   1968.8
 Isp, M/SEC                  852.4   1766.9


 MOLE FRACTIONS

[...]
    WERE LESS THAN 5.000000E-06 FOR ALL ASSIGNED CONDITIONS

 H2O2            O3              H2O(cr)         H2O(L)         

 NOTE. WEIGHT FRACTION OF FUEL IN TOTAL FUELS AND OF OXIDANT IN TOTAL OXIDANTS





           THEORETICAL ROCKET PERFORMANCE ASSUMING FROZEN COMPOSITION

 Pin =    26.1 PSIA
 CASE =                

             REACTANT                    WT FRACTION      ENERGY      TEMP
                                          (SEE NOTE)     KJ/KG-MOL      K  
 OXIDANT     H2O2                         1.0000000   -135886.358    298.000
 FUEL        H2O                          1.0000000   -241831.038    298.000

 O/F=   99.00000  %FUEL=  1.000000  R,EQ.RATIO= 0.504723  PHI,EQ.RATIO= 0.000000

                 CHAMBER   THROAT     EXIT
 Pinf/P            1.0000   1.7849   22.722
 P, BAR            1.8000   1.0084  0.07922
 T, K             2003.40  1806.23  1104.49
 RHO, KG/CU M    2.4398-1 1.5161-1 1.9477-2
 H, KJ/KG        -4089.22 -4495.36 -5839.24
 U, KJ/KG        -4826.98 -5160.50 -6245.97
 G, KJ/KG        -27760.8 -25837.2 -18889.6
 S, KJ/(KG)(K)    11.8157  11.8157  11.8157

 M, (1/n)          22.578   22.578   22.578
 Cp, KJ/(KG)(K)    2.0857   2.0328   1.7793
 GAMMAs            1.2144   1.2212   1.2610
 SON VEL,M/SEC      946.5    901.3    716.2
 MACH NUMBER        0.000    1.000    2.612

 PERFORMANCE PARAMETERS

 Ae/At                     1.00000   3.7500
 CSTAR, M/SEC               1317.3   1317.3
 CF                         0.6842   1.4202
 Ivac, M/SEC                1639.3   2088.2
 Isp, M/SEC                  901.3   1870.8

 MOLE FRACTIONS

 *H              0.00002   HO2             0.00001   *H2             0.00026
 H2O             0.66647   *O              0.00029   *OH             0.00586
 *O2             0.32708

  * THERMODYNAMIC PROPERTIES FITTED TO 20000.K

    PRODUCTS WHICH WERE CONSIDERED BUT WHOSE MOLE FRACTIONS
    WERE LESS THAN 5.000000E-06 FOR ALL ASSIGNED CONDITIONS

 H2O2            O3              H2O(cr)         H2O(L)         

 NOTE. WEIGHT FRACTION OF FUEL IN TOTAL FUELS AND OF OXIDANT IN TOTAL OXIDANTS






 POINT ITN      T            H           O 
   1    2    2003.431     -13.580     -14.648
 Pinf/Pt = 1.768376
   2    3    1822.357     -14.322     -14.765
 Pinf/Pt = 1.777869
   2    2    1820.684     -14.329     -14.766
 Pinf/Pt = 1.777950
   2    1    1820.669     -14.329     -14.766
   3    4    1137.030     -19.237     -15.253
   3    2    1123.847     -19.390     -15.264
   3    1    1123.870     -19.389     -15.264





              THEORETICAL ROCKET PERFORMANCE ASSUMING EQUILIBRIUM

           COMPOSITION DURING EXPANSION FROM INFINITE AREA COMBUSTOR

 Pin =    26.3 PSIA
 CASE =                

             REACTANT                    WT FRACTION      ENERGY      TEMP
                                          (SEE NOTE)     KJ/KG-MOL      K  
 OXIDANT     H2O2                         1.0000000   -135886.358    298.000
 FUEL        H2O                          1.0000000   -241831.038    298.000

 O/F=   99.00000  %FUEL=  1.000000  R,EQ.RATIO= 0.504723  PHI,EQ.RATIO= 0.000000

                 CHAMBER   THROAT     EXIT
 Pinf/P            1.0000   1.7779   22.559
 P, BAR            1.8100   1.0180  0.08023
 T, K             2003.43  1820.67  1123.87
 RHO, KG/CU M    2.4534-1 1.5200-1 1.9420-2
 H, KJ/KG        -4089.22 -4494.09 -5852.82
 U, KJ/KG        -4826.99 -5163.86 -6265.97
 G, KJ/KG        -27757.0 -26002.8 -19129.8
 S, KJ/(KG)(K)    11.8137  11.8137  11.8137

 M, (1/n)          22.578   22.602   22.618
 (dLV/dLP)t      -1.00051 -1.00020 -1.00000
 (dLV/dLT)p        1.0185   1.0082   1.0000
 Cp, KJ/(KG)(K)    2.3359   2.1609   1.7881
 GAMMAs            1.1948   1.2090   1.2588
 SON VEL,M/SEC      938.9    899.9    721.2
 MACH NUMBER        0.000    1.000    2.604

 PERFORMANCE PARAMETERS

 Ae/At                      1.0000   3.7500
 CSTAR, M/SEC               1323.4   1323.4
 CF                         0.6800   1.4192
 Ivac, M/SEC                1644.2   2098.1
 Isp, M/SEC                  899.9   1878.1


 MOLE FRACTIONS

 *H               0.00002  0.00000  0.00000
 HO2              0.00001  0.00000  0.00000
 *H2              0.00026  0.00008  0.00000
 H2O              0.66648  0.66900  0.67085
 *O               0.00029  0.00008  0.00000
 *OH              0.00586  0.00258  0.00001
 *O2              0.32709  0.32826  0.32915

  * THERMODYNAMIC PROPERTIES FITTED TO 20000.K

    PRODUCTS WHICH WERE CONSIDERED BUT WHOSE MOLE FRACTIONS
    WERE LESS THAN 5.000000E-06 FOR ALL ASSIGNED CONDITIONS

 H2O2            O3              H2O(cr)         H2O(L)         

 NOTE. WEIGHT FRACTION OF FUEL IN TOTAL FUELS AND OF OXIDANT IN TOTAL OXIDANTS





           THEORETICAL ROCKET PERFORMANCE ASSUMING FROZEN COMPOSITION

 Pin =    26.3 PSIA
 CASE =                

             REACTANT                    WT FRACTION      ENERGY      TEMP
                                          (SEE NOTE)     KJ/KG-MOL      K  
 OXIDANT     H2O2                         1.0000000   -135886.358    298.000
 FUEL        H2O                          1.0000000   -241831.038    298.000

 O/F=   99.00000  %FUEL=  1.000000  R,EQ.RATIO= 0.504723  PHI,EQ.RATIO= 0.000000

                 CHAMBER   THROAT     EXIT
 Pinf/P            1.0000   1.7849   22.722
 P, BAR            1.8100   1.0140  0.07966
 T, K             2003.43  1806.26  1104.51
 RHO, KG/CU M    2.4534-1 1.5245-1 1.9585-2
 H, KJ/KG        -4089.22 -4495.36 -5839.27
 U, KJ/KG        -4826.99 -5160.52 -6246.00
 G, KJ/KG        -27757.0 -25833.9 -18887.6
 S, KJ/(KG)(K)    11.8137  11.8137  11.8137

 M, (1/n)          22.578   22.578   22.578
 Cp, KJ/(KG)(K)    2.0857   2.0329   1.7793
 GAMMAs            1.2144   1.2212   1.2610
 SON VEL,M/SEC      946.5    901.3    716.2
 MACH NUMBER        0.000    1.000    2.612

 PERFORMANCE PARAMETERS

 Ae/At                     1.00000   3.7500
 CSTAR, M/SEC               1317.3   1317.3
 CF                         0.6842   1.4202
 Ivac, M/SEC                1639.3   2088.3
 Isp, M/SEC                  901.3   1870.9

 MOLE FRACTIONS

 *H              0.00002   HO2             0.00001   *H2             0.00026
 H2O             0.66648   *O              0.00029   *OH             0.00586
 *O2             0.32709

  * THERMODYNAMIC PROPERTIES FITTED TO 20000.K

    PRODUCTS WHICH WERE CONSIDERED BUT WHOSE MOLE FRACTIONS
    WERE LESS THAN 5.000000E-06 FOR ALL ASSIGNED CONDITIONS

 H2O2            O3              H2O(cr)         H2O(L)         

 NOTE. WEIGHT FRACTION OF FUEL IN TOTAL FUELS AND OF OXIDANT IN TOTAL OXIDANTS






 POINT ITN      T            H           O 
   1    2    2003.558     -13.574     -14.637
 Pinf/Pt = 1.768435
   2    3    1822.396     -14.316     -14.754
 Pinf/Pt = 1.777904
   2    2    1820.726     -14.323     -14.755
 Pinf/Pt = 1.777984
   2    1    1820.712     -14.323     -14.755
   3    4    1137.007     -19.231     -15.242
   3    2    1123.833     -19.384     -15.253
   3    1    1123.856     -19.384     -15.253





              THEORETICAL ROCKET PERFORMANCE ASSUMING EQUILIBRIUM

           COMPOSITION DURING EXPANSION FROM INFINITE AREA COMBUSTOR

 Pin =    26.8 PSIA
 CASE =                

             REACTANT                    WT FRACTION      ENERGY      TEMP
                                          (SEE NOTE)     KJ/KG-MOL      K  
 OXIDANT     H2O2                         1.0000000   -135886.358    298.000
 FUEL        H2O                          1.0000000   -241831.038    298.000

 O/F=   99.00000  %FUEL=  1.000000  R,EQ.RATIO= 0.504723  PHI,EQ.RATIO= 0.000000

                 CHAMBER   THROAT     EXIT
 Pinf/P            1.0000   1.7780   22.560
 P, BAR            1.8500   1.0405  0.08200
 T, K             2003.56  1820.71  1123.86
 RHO, KG/CU M    2.5074-1 1.5535-1 1.9849-2
 H, KJ/KG        -4089.22 -4494.12 -5852.85
 U, KJ/KG        -4827.03 -5163.91 -6265.99
 G, KJ/KG        -27742.4 -25988.7 -19120.6
 S, KJ/(KG)(K)    11.8056  11.8056  11.8056

 M, (1/n)          22.579   22.602   22.618
 (dLV/dLP)t      -1.00051 -1.00020 -1.00000
 (dLV/dLT)p        1.0184   1.0082   1.0000
 Cp, KJ/(KG)(K)    2.3345   2.1601   1.7881
 GAMMAs            1.1949   1.2090   1.2588
 SON VEL,M/SEC      938.9    899.9    721.2
 MACH NUMBER        0.000    1.000    2.604

 PERFORMANCE PARAMETERS

 Ae/At                      1.0000   3.7500
 CSTAR, M/SEC               1323.4   1323.4
 CF                         0.6800   1.4192
 Ivac, M/SEC                1644.2   2098.1
 Isp, M/SEC                  899.9   1878.1


 MOLE FRACTIONS

 *H               0.00002  0.00000  0.00000
 HO2              0.00001  0.00000  0.00000
 *H2              0.00025  0.00007  0.00000
 H2O              0.66650  0.66901  0.67085
 *O               0.00029  0.00008  0.00000
 *OH              0.00583  0.00256  0.00001
 *O2              0.32710  0.32826  0.32915

  * THERMODYNAMIC PROPERTIES FITTED TO 20000.K

    PRODUCTS WHICH WERE CONSIDERED BUT WHOSE MOLE FRACTIONS
    WERE LESS THAN 5.000000E-06 FOR ALL ASSIGNED CONDITIONS

 H2O2            O3              H2O(cr)         H2O(L)         

 NOTE. WEIGHT FRACTION OF FUEL IN TOTAL FUELS AND OF OXIDANT IN TOTAL OXIDANTS





           THEORETICAL ROCKET PERFORMANCE ASSUMING FROZEN COMPOSITION

 Pin =    26.8 PSIA
 CASE =                

             REACTANT                    WT FRACTION      ENERGY      TEMP
                                          (SEE NOTE)     KJ/KG-MOL      K  
 OXIDANT     H2O2                         1.0000000   -135886.358    298.000
 FUEL        H2O                          1.0000000   -241831.038    298.000

 O/F=   99.00000  %FUEL=  1.000000  R,EQ.RATIO= 0.504723  PHI,EQ.RATIO= 0.000000

                 CHAMBER   THROAT     EXIT
 Pinf/P            1.0000   1.7849   22.722
 P, BAR            1.8500   1.0365  0.08142
 T, K             2003.56  1806.38  1104.61
 RHO, KG/CU M    2.5074-1 1.5581-1 2.0016-2
 H, KJ/KG        -4089.22 -4495.38 -5839.36
 U, KJ/KG        -4827.03 -5160.58 -6246.13
 G, KJ/KG        -27742.4 -25820.8 -18879.9
 S, KJ/(KG)(K)    11.8056  11.8056  11.8056

 M, (1/n)          22.579   22.579   22.579
 Cp, KJ/(KG)(K)    2.0857   2.0329   1.7793
 GAMMAs            1.2144   1.2212   1.2610
 SON VEL,M/SEC      946.6    901.3    716.2
 MACH NUMBER        0.000    1.000    2.612

 PERFORMANCE PARAMETERS

 Ae/At                      1.0000   3.7500
 CSTAR, M/SEC               1317.4   1317.4
 CF                         0.6842   1.4202
 Ivac, M/SEC                1639.3   2088.3
 Isp, M/SEC                  901.3   1870.9

 MOLE FRACTIONS

 *H              0.00002   HO2             0.00001   *H2             0.00025
 H2O             0.66650   *O              0.00029   *OH             0.00583
 *O2             0.32710

  * THERMODYNAMIC PROPERTIES FITTED TO 20000.K

    PRODUCTS WHICH WERE CONSIDERED BUT WHOSE MOLE FRACTIONS
    WERE LESS THAN 5.000000E-06 FOR ALL ASSIGNED CONDITIONS

 H2O2            O3              H2O(cr)         H2O(L)         

 NOTE. WEIGHT FRACTION OF FUEL IN TOTAL FUELS AND OF OXIDANT IN TOTAL OXIDANTS






 POINT ITN      T            H           O 
   1    2    2003.713     -13.567     -14.624
 Pinf/Pt = 1.768507
   2    3    1822.442     -14.309     -14.741
 Pinf/Pt = 1.777946
   2    2    1820.777     -14.317     -14.742
 Pinf/Pt = 1.778026
   2    1    1820.763     -14.317     -14.742
   3    4    1136.980     -19.225     -15.228
   3    2    1123.816     -19.378     -15.240
   3    1    1123.839     -19.378     -15.240





              THEORETICAL ROCKET PERFORMANCE ASSUMING EQUILIBRIUM

           COMPOSITION DURING EXPANSION FROM INFINITE AREA COMBUSTOR

 Pin =    27.6 PSIA
 CASE =                

             REACTANT                    WT FRACTION      ENERGY      TEMP
                                          (SEE NOTE)     KJ/KG-MOL      K  
 OXIDANT     H2O2                         1.0000000   -135886.358    298.000
 FUEL        H2O                          1.0000000   -241831.038    298.000

 O/F=   99.00000  %FUEL=  1.000000  R,EQ.RATIO= 0.504723  PHI,EQ.RATIO= 0.000000

                 CHAMBER   THROAT     EXIT
 Pinf/P            1.0000   1.7780   22.560
 P, BAR            1.9000   1.0686  0.08422
 T, K             2003.71  1820.76  1123.84
 RHO, KG/CU M    2.5750-1 1.5954-1 2.0385-2
 H, KJ/KG        -4089.22 -4494.15 -5852.88
 U, KJ/KG        -4827.07 -5163.95 -6266.01
 G, KJ/KG        -27724.6 -25971.5 -19109.4
 S, KJ/(KG)(K)    11.7958  11.7958  11.7958

 M, (1/n)          22.579   22.602   22.618
 (dLV/dLP)t      -1.00051 -1.00020 -1.00000
 (dLV/dLT)p        1.0183   1.0081   1.0000
 Cp, KJ/(KG)(K)    2.3327   2.1592   1.7881
 GAMMAs            1.1950   1.2091   1.2588
 SON VEL,M/SEC      939.0    899.9    721.1
 MACH NUMBER        0.000    1.000    2.604

 PERFORMANCE PARAMETERS

 Ae/At                      1.0000   3.7500
 CSTAR, M/SEC               1323.4   1323.4
 CF                         0.6800   1.4192
 Ivac, M/SEC                1644.2   2098.1
 Isp, M/SEC                  899.9   1878.1


 MOLE FRACTIONS

 *H               0.00002  0.00000  0.00000
 HO2              0.00001  0.00000  0.00000
 *H2              0.00025  0.00007  0.00000
 H2O              0.66653  0.66902  0.67085
 *O               0.00029  0.00008  0.00000
 *OH              0.00579  0.00255  0.00001
 *O2              0.32711  0.32827  0.32915

  * THERMODYNAMIC PROPERTIES FITTED TO 20000.K

    PRODUCTS WHICH WERE CONSIDERED BUT WHOSE MOLE FRACTIONS
    WERE LESS THAN 5.000000E-06 FOR ALL ASSIGNED CONDITIONS

 H2O2            O3              H2O(cr)         H2O(L)         

 NOTE. WEIGHT FRACTION OF FUEL IN TOTAL FUELS AND OF OXIDANT IN TOTAL OXIDANTS





           THEORETICAL ROCKET PERFORMANCE ASSUMING FROZEN COMPOSITION

 Pin =    27.6 PSIA
 CASE =                

             REACTANT                    WT FRACTION      ENERGY      TEMP
                                          (SEE NOTE)     KJ/KG-MOL      K  
 OXIDANT     H2O2                         1.0000000   -135886.358    298.000
 FUEL        H2O                          1.0000000   -241831.038    298.000

 O/F=   99.00000  %FUEL=  1.000000  R,EQ.RATIO= 0.504723  PHI,EQ.RATIO= 0.000000

                 CHAMBER   THROAT     EXIT
 Pinf/P            1.0000   1.7849   22.721
 P, BAR            1.9000   1.0645  0.08362
 T, K             2003.71  1806.53  1104.72
 RHO, KG/CU M    2.5750-1 1.6001-1 2.0556-2
 H, KJ/KG        -4089.22 -4495.41 -5839.49
 U, KJ/KG        -4827.07 -5160.65 -6246.29
 G, KJ/KG        -27724.6 -25804.8 -18870.5
 S, KJ/(KG)(K)    11.7958  11.7958  11.7958

 M, (1/n)          22.579   22.579   22.579
 Cp, KJ/(KG)(K)    2.0858   2.0329   1.7794
 GAMMAs            1.2144   1.2212   1.2610
 SON VEL,M/SEC      946.6    901.3    716.2
 MACH NUMBER        0.000    1.000    2.612

 PERFORMANCE PARAMETERS

 Ae/At                      1.0000   3.7500
 CSTAR, M/SEC               1317.4   1317.4
 CF                         0.6842   1.4202
 Ivac, M/SEC                1639.4   2088.4
 Isp, M/SEC                  901.3   1871.0

 MOLE FRACTIONS

 *H              0.00002   HO2             0.00001   *H2             0.00025
 H2O             0.66653   *O              0.00029   *OH             0.00579
 *O2             0.32711

  * THERMODYNAMIC PROPERTIES FITTED TO 20000.K

    PRODUCTS WHICH WERE CONSIDERED BUT WHOSE MOLE FRACTIONS
    WERE LESS THAN 5.000000E-06 FOR ALL ASSIGNED CONDITIONS

 H2O2            O3              H2O(cr)         H2O(L)         

 NOTE. WEIGHT FRACTION OF FUEL IN TOTAL FUELS AND OF OXIDANT IN TOTAL OXIDANTS






 POINT ITN      T            H           O 
   1    3    2013.937     -12.947     -13.455
 Pinf/Pt = 1.773355
   2    3    1825.447     -13.710     -13.567
 Pinf/Pt = 1.780740
   2    2    1824.116     -13.716     -13.568
 Pinf/Pt = 1.780789
   2    1    1824.107     -13.716     -13.568
   3    4    1135.157     -18.657     -14.052
   3    2    1122.696     -18.802     -14.062
   3    1    1122.716     -18.802     -14.062





              THEORETICAL ROCKET PERFORMANCE ASSUMING EQUILIBRIUM

           COMPOSITION DURING EXPANSION FROM INFINITE AREA COMBUSTOR

 Pin =   290.1 PSIA
 CASE =                

             REACTANT                    WT FRACTION      ENERGY      TEMP
                                          (SEE NOTE)     KJ/KG-MOL      K  
 OXIDANT     H2O2                         1.0000000   -135886.358    298.000
 FUEL        H2O                          1.0000000   -241831.038    298.000

 O/F=   99.00000  %FUEL=  1.000000  R,EQ.RATIO= 0.504723  PHI,EQ.RATIO= 0.000000

                 CHAMBER   THROAT     EXIT
 Pinf/P            1.0000   1.7808   22.603
 P, BAR            20.000   11.231  0.88485
 T, K             2013.94  1824.11  1122.72
 RHO, KG/CU M    2.6990 0 1.6742 0 2.1440-1
 H, KJ/KG        -4089.22 -4496.39 -5854.91
 U, KJ/KG        -4830.25 -5167.20 -6267.63
 G, KJ/KG        -26100.3 -24432.7 -18125.5
 S, KJ/(KG)(K)    10.9294  10.9294  10.9294

 M, (1/n)          22.597   22.609   22.618
 (dLV/dLP)t      -1.00026 -1.00010 -1.00000
 (dLV/dLT)p        1.0095   1.0042   1.0000
 Cp, KJ/(KG)(K)    2.2191   2.1030   1.7873
 GAMMAs            1.2029   1.2140   1.2590
 SON VEL,M/SEC      944.1    902.4    720.8
 MACH NUMBER        0.000    1.000    2.607

 PERFORMANCE PARAMETERS

 Ae/At                      1.0000   3.7500
 CSTAR, M/SEC               1323.8   1323.8
 CF                         0.6817   1.4196
 Ivac, M/SEC                1645.8   2098.8
 Isp, M/SEC                  902.4   1879.2


 MOLE FRACTIONS

 HO2              0.00002  0.00001  0.00000
 *H2              0.00008  0.00002  0.00000
 H2O              0.66843  0.66984  0.67085
 *O               0.00010  0.00003  0.00000
 *OH              0.00339  0.00144  0.00000
 *O2              0.32797  0.32865  0.32915

  * THERMODYNAMIC PROPERTIES FITTED TO 20000.K

    PRODUCTS WHICH WERE CONSIDERED BUT WHOSE MOLE FRACTIONS
    WERE LESS THAN 5.000000E-06 FOR ALL ASSIGNED CONDITIONS

 *H              H2O2            O3              H2O(cr)         H2O(L)         

 NOTE. WEIGHT FRACTION OF FUEL IN TOTAL FUELS AND OF OXIDANT IN TOTAL OXIDANTS





           THEORETICAL ROCKET PERFORMANCE ASSUMING FROZEN COMPOSITION

 Pin =   290.1 PSIA
 CASE =                

             REACTANT                    WT FRACTION      ENERGY      TEMP
                                          (SEE NOTE)     KJ/KG-MOL      K  
 OXIDANT     H2O2                         1.0000000   -135886.358    298.000
 FUEL        H2O                          1.0000000   -241831.038    298.000

 O/F=   99.00000  %FUEL=  1.000000  R,EQ.RATIO= 0.504723  PHI,EQ.RATIO= 0.000000

                 CHAMBER   THROAT     EXIT
 Pinf/P            1.0000   1.7846   22.691
 P, BAR            20.000   11.207  0.88142
 T, K             2013.94  1816.21  1112.19
 RHO, KG/CU M    2.6990 0 1.6770 0 2.1539-1
 H, KJ/KG        -4089.22 -4497.06 -5847.47
 U, KJ/KG        -4830.25 -5165.33 -6256.70
 G, KJ/KG        -26100.3 -24347.0 -18003.0
 S, KJ/(KG)(K)    10.9294  10.9294  10.9294

 M, (1/n)          22.597   22.597   22.597
 Cp, KJ/(KG)(K)    2.0883   2.0357   1.7825
 GAMMAs            1.2139   1.2206   1.2601
 SON VEL,M/SEC      948.4    903.2    718.1
 MACH NUMBER        0.000    1.000    2.611

 PERFORMANCE PARAMETERS

 Ae/At                     1.00000   3.7500
 CSTAR, M/SEC               1320.5   1320.5
 CF                         0.6840   1.4201
 Ivac, M/SEC                1643.1   2093.5
 Isp, M/SEC                  903.2   1875.2

 MOLE FRACTIONS

 HO2             0.00002   *H2             0.00008   H2O             0.66843
 *O              0.00010   *OH             0.00339   *O2             0.32797

  * THERMODYNAMIC PROPERTIES FITTED TO 20000.K

    PRODUCTS WHICH WERE CONSIDERED BUT WHOSE MOLE FRACTIONS
    WERE LESS THAN 5.000000E-06 FOR ALL ASSIGNED CONDITIONS

 *H              H2O2            O3              H2O(cr)         H2O(L)         

 NOTE. WEIGHT FRACTION OF FUEL IN TOTAL FUELS AND OF OXIDANT IN TOTAL OXIDANTS



