
 *******************************************************************************

         NASA-GLENN CHEMICAL EQUILIBRIUM PROGRAM CEA2, MAY 21, 2004
                   BY  BONNIE MCBRIDE AND SANFORD GORDON
      REFS: NASA RP-1311, PART I, 1994 AND NASA RP-1311, PART II, 1996

 *******************************************************************************



 problem    o/f=4,4.1,4.2,4.3,4.4,4.5,4.75,5,5.5,6,7,8,9,10,20,30,50,70,90,99,
     rocket  equilibrium  frozen  nfz=1  tcest,k=3800
   p,bar=28.0,28.25,28.5,28.75,29.00,29.25,29.50,29.75,
   sup,ae/at=4,
 react
   fuel=H2O(L) wt=100  t,k=298
   oxid=H2O2(L) wt=100  t,k=298
 output  transport
     plot o/f %f p t rho h g m mw cp gam pip mach aeat cf ivac isp
 end

 OPTIONS: TP=F  HP=F  SP=F  TV=F  UV=F  SV=F  DETN=F  SHOCK=F  REFL=F  INCD=F
 RKT=T  FROZ=T  EQL=T  IONS=F  SIUNIT=T  DEBUGF=F  SHKDBG=F  DETDBG=F  TRNSPT=T

 TRACE= 0.00E+00  S/R= 0.000000E+00  H/R= 0.000000E+00  U/R= 0.000000E+00

 Pc,BAR =    28.000000    28.250000    28.500000    28.750000    29.000000    29.250000    29.500000

 Pc,BAR =    29.750000

 Pc/P =

 SUBSONIC AREA RATIOS =

 SUPERSONIC AREA RATIOS =     4.0000

 NFZ=  1  Mdot/Ac= 0.000000E+00  Ac/At= 0.000000E+00

    REACTANT          WT.FRAC   (ENERGY/R),K   TEMP,K  DENSITY
        EXPLODED FORMULA
 F: H2O(L)           1.000000  -0.343786E+05   298.00  0.0000
          H  2.00000  O  1.00000
 O: H2O2(L)          1.000000  -0.225862E+05   298.00  0.0000
          H  2.00000  O  2.00000

  SPECIES BEING CONSIDERED IN THIS SYSTEM
 (CONDENSED PHASE MAY HAVE NAME LISTED SEVERAL TIMES)
  LAST thermo.inp UPDATE:    9/09/04

  g 6/97  *H               g 4/02  HO2              tpis78  *H2            
  g 8/89  H2O              g 6/99  H2O2             g 5/97  *O             
  g 4/02  *OH              tpis89  *O2              g 8/01  O3             
  g11/99  H2O(cr)          g 8/01  H2O(L)           g 8/01  H2O(L)         

 SPECIES WITH TRANSPORT PROPERTIES

        PURE SPECIES

  H                 H2                H2O               O               
  OH                O2              

     BINARY INTERACTIONS

     H               H2              
     H               O               
     H2              H2O             
     H2              O2              
     H2O             O2              
     O               O2              


 O/F =   4.000000

                       EFFECTIVE FUEL     EFFECTIVE OXIDANT        MIXTURE
 ENTHALPY                  h(2)/R              h(1)/R               h0/R
 (KG-MOL)(K)/KG       -0.19083035E+04     -0.66401406E+03     -0.91287194E+03

 KG-FORM.WT./KG             bi(2)               bi(1)               b0i
  *H                   0.11101687E+00      0.58798142E-01      0.69241888E-01
  *O                   0.55508435E-01      0.58798142E-01      0.58140201E-01

 POINT ITN      T            H           O 
   1   10     784.212     -23.107     -11.994
 Pinf/Pt = 1.824496
   2    3     684.399     -25.865     -12.143
 Pinf/Pt = 1.832146
   2    2     683.741     -25.886     -12.144
 Pinf/Pt = 1.832196
   2    1     683.736     -25.886     -12.144
   3    4     360.926     -45.278     -13.007
 ADD  H2O(L)         
   3    2     367.596     -44.553     -13.010
   3    3     364.966     -44.863     -13.053
   3    2     364.973     -44.862     -13.053





              THEORETICAL ROCKET PERFORMANCE ASSUMING EQUILIBRIUM

           COMPOSITION DURING EXPANSION FROM INFINITE AREA COMBUSTOR

 Pin =   406.1 PSIA
 CASE =                

             REACTANT                    WT FRACTION      ENERGY      TEMP
                                          (SEE NOTE)     KJ/KG-MOL      K  
 FUEL        H2O(L)                       1.0000000   -285841.390    298.000
 OXIDANT     H2O2(L)                      1.0000000   -187793.400    298.000

 O/F=    4.00000  %FUEL= 20.000000  R,EQ.RATIO= 0.595473  PHI,EQ.RATIO= 0.000000

                 CHAMBER   THROAT     EXIT
 Pinf/P            1.0000   1.8322   28.059
 P, BAR            28.000   15.282  0.99788
 T, K              784.21   683.74   364.97
 RHO, KG/CU M    9.2587 0 5.7959 0 7.1634-1
 H, KJ/KG        -7590.08 -7761.26 -8290.47
 U, KJ/KG        -7892.50 -8024.93 -8429.77
 G, KJ/KG        -14979.0 -14203.5 -11729.3
 S, KJ/(KG)(K)     9.4221   9.4221   9.4221

 M, (1/n)          21.561   21.561   21.784
 MW, MOL WT        21.561   21.561   21.561
 (dLV/dLP)t      -1.00000 -1.00000 -3.90362
 (dLV/dLT)p        1.0000   1.0000  40.4416
 Cp, KJ/(KG)(K)    1.7295   1.6778 206.0344
 GAMMAs            1.2870   1.2984   1.1444
 SON VEL,M/SEC      623.9    585.1    399.3
 MACH NUMBER        0.000    1.000    2.964

 TRANSPORT PROPERTIES (GASES ONLY)
   CONDUCTIVITY IN UNITS OF MILLIWATTS/(CM)(K)

 VISC,MILLIPOISE  0.34511  0.30558  0.17209

  WITH EQUILIBRIUM REACTIONS

 Cp, KJ/(KG)(K)    1.7295   1.6778   1.5242
 CONDUCTIVITY      0.6769   0.5710   0.2820
 PRANDTL NUMBER    0.8818   0.8979   0.9300

  WITH FROZEN REACTIONS

 Cp, KJ/(KG)(K)    1.7295   1.6778   1.5242
 CONDUCTIVITY      0.6769   0.5710   0.2820
 PRANDTL NUMBER    0.8818   0.8979   0.9300

 PERFORMANCE PARAMETERS

 Ae/At                      1.0000   4.0000
 CSTAR, M/SEC                825.6    825.6
 CF                         0.7087   1.4335
 Ivac, M/SEC                1035.7   1301.2
 Isp, M/SEC                  585.1   1183.5


 MOLE FRACTIONS

 H2O              0.74645  0.74645  0.73620
 *O2              0.25355  0.25355  0.25355
 H2O(L)           0.00000  0.00000  0.01025

  * THERMODYNAMIC PROPERTIES FITTED TO 20000.K

    PRODUCTS WHICH WERE CONSIDERED BUT WHOSE MOLE FRACTIONS
    WERE LESS THAN 5.000000E-06 FOR ALL ASSIGNED CONDITIONS

 *H              HO2             *H2             H2O2            *O             
 *OH             O3              H2O(cr)        

 NOTE. WEIGHT FRACTION OF FUEL IN TOTAL FUELS AND OF OXIDANT IN TOTAL OXIDANTS





           THEORETICAL ROCKET PERFORMANCE ASSUMING FROZEN COMPOSITION

 Pin =   406.1 PSIA
 CASE =                

             REACTANT                    WT FRACTION      ENERGY      TEMP
                                          (SEE NOTE)     KJ/KG-MOL      K  
 FUEL        H2O(L)                       1.0000000   -285841.390    298.000
 OXIDANT     H2O2(L)                      1.0000000   -187793.400    298.000

 O/F=    4.00000  %FUEL= 20.000000  R,EQ.RATIO= 0.595473  PHI,EQ.RATIO= 0.000000

                 CHAMBER   THROAT     EXIT
 Pinf/P            1.0000   1.8322   29.143
 P, BAR            28.000   15.282  0.96077
 T, K              784.21   683.74   348.98
 RHO, KG/CU M    9.2587 0 5.7959 0 7.1391-1
 H, KJ/KG        -7590.08 -7761.26 -8295.25
 U, KJ/KG        -7892.50 -8024.93 -8429.83
 G, KJ/KG        -14979.0 -14203.5 -11583.4
 S, KJ/(KG)(K)     9.4221   9.4221   9.4221

 M, (1/n)          21.561   21.561   21.561
 MW, MOL WT        21.561   21.561   21.561
 Cp, KJ/(KG)(K)    1.7295   1.6778   1.5219
 GAMMAs            1.2870   1.2984   1.3394
 SON VEL,M/SEC      623.9    585.1    424.6
 MACH NUMBER        0.000    1.000    2.797

 TRANSPORT PROPERTIES (GASES ONLY)
   CONDUCTIVITY IN UNITS OF MILLIWATTS/(CM)(K)

 VISC,MILLIPOISE  0.34511  0.30558  0.16492

  WITH FROZEN REACTIONS

 Cp, KJ/(KG)(K)    1.7295   1.6778   1.5219
 CONDUCTIVITY      0.6769   0.5710   0.2706
 PRANDTL NUMBER    0.8818   0.8979   0.9277

 PERFORMANCE PARAMETERS

 Ae/At                      1.0000   4.0000
 CSTAR, M/SEC                825.6    825.6
 CF                         0.7087   1.4384
 Ivac, M/SEC                1035.7   1300.9
 Isp, M/SEC                  585.1   1187.6

 MOLE FRACTIONS

 H2O             0.74645   *O2             0.25355

  * THERMODYNAMIC PROPERTIES FITTED TO 20000.K

    PRODUCTS WHICH WERE CONSIDERED BUT WHOSE MOLE FRACTIONS
    WERE LESS THAN 5.000000E-06 FOR ALL ASSIGNED CONDITIONS

 *H              HO2             *H2             H2O2            *O             
 *OH             O3              H2O(cr)        

 NOTE. WEIGHT FRACTION OF FUEL IN TOTAL FUELS AND OF OXIDANT IN TOTAL OXIDANTS






 POINT ITN      T            H           O 
   1    1     784.212     -23.105     -11.989
 Pinf/Pt = 1.824496
   2    3     684.399     -25.863     -12.138
 Pinf/Pt = 1.832146
   2    2     683.741     -25.884     -12.139
 Pinf/Pt = 1.832196
   2    1     683.736     -25.884     -12.139
   3    4     360.926     -45.276     -13.002
 ADD  H2O(L)         
   3    2     367.837     -44.525     -13.006
   3    3     365.219     -44.833     -13.048
   3    2     365.226     -44.832     -13.048





              THEORETICAL ROCKET PERFORMANCE ASSUMING EQUILIBRIUM

           COMPOSITION DURING EXPANSION FROM INFINITE AREA COMBUSTOR

 Pin =   409.7 PSIA
 CASE =                

             REACTANT                    WT FRACTION      ENERGY      TEMP
                                          (SEE NOTE)     KJ/KG-MOL      K  
 FUEL        H2O(L)                       1.0000000   -285841.390    298.000
 OXIDANT     H2O2(L)                      1.0000000   -187793.400    298.000

 O/F=    4.00000  %FUEL= 20.000000  R,EQ.RATIO= 0.595473  PHI,EQ.RATIO= 0.000000

                 CHAMBER   THROAT     EXIT
 Pinf/P            1.0000   1.8322   28.043
 P, BAR            28.250   15.419   1.0074
 T, K              784.21   683.74   365.23
 RHO, KG/CU M    9.3414 0 5.8477 0 7.2277-1
 H, KJ/KG        -7590.08 -7761.26 -8290.40
 U, KJ/KG        -7892.50 -8024.93 -8429.78
 G, KJ/KG        -14976.3 -14201.2 -11730.4
 S, KJ/(KG)(K)     9.4187   9.4187   9.4187

 M, (1/n)          21.561   21.561   21.788
 MW, MOL WT        21.561   21.561   21.561
 (dLV/dLP)t      -1.00000 -1.00000 -3.90295
 (dLV/dLT)p        1.0000   1.0000  40.3951
 Cp, KJ/(KG)(K)    1.7295   1.6778 205.5653
 GAMMAs            1.2870   1.2984   1.1445
 SON VEL,M/SEC      623.9    585.1    399.4
 MACH NUMBER        0.000    1.000    2.963

 TRANSPORT PROPERTIES (GASES ONLY)
   CONDUCTIVITY IN UNITS OF MILLIWATTS/(CM)(K)

 VISC,MILLIPOISE  0.34511  0.30558  0.17221

  WITH EQUILIBRIUM REACTIONS

 Cp, KJ/(KG)(K)    1.7295   1.6778   1.5242
 CONDUCTIVITY      0.6769   0.5710   0.2822
 PRANDTL NUMBER    0.8818   0.8979   0.9300

  WITH FROZEN REACTIONS

 Cp, KJ/(KG)(K)    1.7295   1.6778   1.5242
 CONDUCTIVITY      0.6769   0.5710   0.2822
 PRANDTL NUMBER    0.8818   0.8979   0.9300

 PERFORMANCE PARAMETERS

 Ae/At                      1.0000   4.0000
 CSTAR, M/SEC                825.6    825.6
 CF                         0.7087   1.4334
 Ivac, M/SEC                1035.7   1301.3
 Isp, M/SEC                  585.1   1183.5


 MOLE FRACTIONS

 H2O              0.74645  0.74645  0.73603
 *O2              0.25355  0.25355  0.25355
 H2O(L)           0.00000  0.00000  0.01042

  * THERMODYNAMIC PROPERTIES FITTED TO 20000.K

    PRODUCTS WHICH WERE CONSIDERED BUT WHOSE MOLE FRACTIONS
    WERE LESS THAN 5.000000E-06 FOR ALL ASSIGNED CONDITIONS

 *H              HO2             *H2             H2O2            *O             
 *OH             O3              H2O(cr)        

 NOTE. WEIGHT FRACTION OF FUEL IN TOTAL FUELS AND OF OXIDANT IN TOTAL OXIDANTS





           THEORETICAL ROCKET PERFORMANCE ASSUMING FROZEN COMPOSITION

 Pin =   409.7 PSIA
 CASE =                

             REACTANT                    WT FRACTION      ENERGY      TEMP
                                          (SEE NOTE)     KJ/KG-MOL      K  
 FUEL        H2O(L)                       1.0000000   -285841.390    298.000
 OXIDANT     H2O2(L)                      1.0000000   -187793.400    298.000

 O/F=    4.00000  %FUEL= 20.000000  R,EQ.RATIO= 0.595473  PHI,EQ.RATIO= 0.000000

                 CHAMBER   THROAT     EXIT
 Pinf/P            1.0000   1.8322   29.143
 P, BAR            28.250   15.419  0.96935
 T, K              784.21   683.74   348.98
 RHO, KG/CU M    9.3414 0 5.8477 0 7.2028-1
 H, KJ/KG        -7590.08 -7761.26 -8295.25
 U, KJ/KG        -7892.50 -8024.93 -8429.83
 G, KJ/KG        -14976.3 -14201.2 -11582.2
 S, KJ/(KG)(K)     9.4187   9.4187   9.4187

 M, (1/n)          21.561   21.561   21.561
 MW, MOL WT        21.561   21.561   21.561
 Cp, KJ/(KG)(K)    1.7295   1.6778   1.5219
 GAMMAs            1.2870   1.2984   1.3394
 SON VEL,M/SEC      623.9    585.1    424.6
 MACH NUMBER        0.000    1.000    2.797

 TRANSPORT PROPERTIES (GASES ONLY)
   CONDUCTIVITY IN UNITS OF MILLIWATTS/(CM)(K)

 VISC,MILLIPOISE  0.34511  0.30558  0.16492

  WITH FROZEN REACTIONS

 Cp, KJ/(KG)(K)    1.7295   1.6778   1.5219
 CONDUCTIVITY      0.6769   0.5710   0.2706
 PRANDTL NUMBER    0.8818   0.8979   0.9277

 PERFORMANCE PARAMETERS

 Ae/At                      1.0000   4.0000
 CSTAR, M/SEC                825.6    825.6
 CF                         0.7087   1.4384
 Ivac, M/SEC                1035.7   1300.9
 Isp, M/SEC                  585.1   1187.6

 MOLE FRACTIONS

 H2O             0.74645   *O2             0.25355

  * THERMODYNAMIC PROPERTIES FITTED TO 20000.K

    PRODUCTS WHICH WERE CONSIDERED BUT WHOSE MOLE FRACTIONS
    WERE LESS THAN 5.000000E-06 FOR ALL ASSIGNED CONDITIONS

 *H              HO2             *H2             H2O2            *O             
 *OH             O3              H2O(cr)        

 NOTE. WEIGHT FRACTION OF FUEL IN TOTAL FUELS AND OF OXIDANT IN TOTAL OXIDANTS






 POINT ITN      T            H           O 
   1    1     784.212     -23.102     -11.985
 Pinf/Pt = 1.824496
   2    3     684.399     -25.861     -12.134
 Pinf/Pt = 1.832146
   2    2     683.741     -25.882     -12.135
 Pinf/Pt = 1.832196
   2    1     683.736     -25.882     -12.135
   3    4     360.926     -45.274     -12.998
 ADD  H2O(L)         
   3    2     368.076     -44.498     -13.001
   3    3     365.470     -44.804     -13.044
   3    2     365.477     -44.803     -13.044





              THEORETICAL ROCKET PERFORMANCE ASSUMING EQUILIBRIUM

           COMPOSITION DURING EXPANSION FROM INFINITE AREA COMBUSTOR

 Pin =   413.4 PSIA
 CASE =                

             REACTANT                    WT FRACTION      ENERGY      TEMP
                                          (SEE NOTE)     KJ/KG-MOL      K  
 FUEL        H2O(L)                       1.0000000   -285841.390    298.000
 OXIDANT     H2O2(L)                      1.0000000   -187793.400    298.000

 O/F=    4.00000  %FUEL= 20.000000  R,EQ.RATIO= 0.595473  PHI,EQ.RATIO= 0.000000

                 CHAMBER   THROAT     EXIT
 Pinf/P            1.0000   1.8322   28.028
 P, BAR            28.500   15.555   1.0169
 T, K              784.21   683.74   365.48
 RHO, KG/CU M    9.4241 0 5.8994 0 7.2920-1
 H, KJ/KG        -7590.08 -7761.26 -8290.34
 U, KJ/KG        -7892.50 -8024.93 -8429.79
 G, KJ/KG        -14973.7 -14198.8 -11731.4
 S, KJ/(KG)(K)     9.4153   9.4153   9.4153

 M, (1/n)          21.561   21.561   21.792
 MW, MOL WT        21.561   21.561   21.561
 (dLV/dLP)t      -1.00000 -1.00000 -3.90228
 (dLV/dLT)p        1.0000   1.0000  40.3490
 Cp, KJ/(KG)(K)    1.7295   1.6778 205.1006
 GAMMAs            1.2870   1.2984   1.1446
 SON VEL,M/SEC      623.9    585.1    399.5
 MACH NUMBER        0.000    1.000    2.962

 TRANSPORT PROPERTIES (GASES ONLY)
   CONDUCTIVITY IN UNITS OF MILLIWATTS/(CM)(K)

 VISC,MILLIPOISE  0.34511  0.30558  0.17232

  WITH EQUILIBRIUM REACTIONS

 Cp, KJ/(KG)(K)    1.7295   1.6778   1.5242
 CONDUCTIVITY      0.6769   0.5710   0.2824
 PRANDTL NUMBER    0.8818   0.8979   0.9300

  WITH FROZEN REACTIONS

 Cp, KJ/(KG)(K)    1.7295   1.6778   1.5242
 CONDUCTIVITY      0.6769   0.5710   0.2824
 PRANDTL NUMBER    0.8818   0.8979   0.9300

 PERFORMANCE PARAMETERS

 Ae/At                      1.0000   4.0000
 CSTAR, M/SEC                825.6    825.6
 CF                         0.7087   1.4333
 Ivac, M/SEC                1035.7   1301.3
 Isp, M/SEC                  585.1   1183.4


 MOLE FRACTIONS

 H2O              0.74645  0.74645  0.73586
 *O2              0.25355  0.25355  0.25355
 H2O(L)           0.00000  0.00000  0.01059

  * THERMODYNAMIC PROPERTIES FITTED TO 20000.K

    PRODUCTS WHICH WERE CONSIDERED BUT WHOSE MOLE FRACTIONS
    WERE LESS THAN 5.000000E-06 FOR ALL ASSIGNED CONDITIONS

 *H              HO2             *H2             H2O2            *O             
 *OH             O3              H2O(cr)        

 NOTE. WEIGHT FRACTION OF FUEL IN TOTAL FUELS AND OF OXIDANT IN TOTAL OXIDANTS





           THEORETICAL ROCKET PERFORMANCE ASSUMING FROZEN COMPOSITION

 Pin =   413.4 PSIA
 CASE =                

             REACTANT                    WT FRACTION      ENERGY      TEMP
                                          (SEE NOTE)     KJ/KG-MOL      K  
 FUEL        H2O(L)                       1.0000000   -285841.390    298.000
 OXIDANT     H2O2(L)                      1.0000000   -187793.400    298.000

 O/F=    4.00000  %FUEL= 20.000000  R,EQ.RATIO= 0.595473  PHI,EQ.RATIO= 0.000000

                 CHAMBER   THROAT     EXIT
 Pinf/P            1.0000   1.8322   29.143
 P, BAR            28.500   15.555  0.97792
 T, K              784.21   683.74   348.98
 RHO, KG/CU M    9.4241 0 5.8994 0 7.2666-1
 H, KJ/KG        -7590.08 -7761.26 -8295.25
 U, KJ/KG        -7892.50 -8024.93 -8429.83
 G, KJ/KG        -14973.7 -14198.8 -11581.0
 S, KJ/(KG)(K)     9.4153   9.4153   9.4153

 M, (1/n)          21.561   21.561   21.561
 MW, MOL WT        21.561   21.561   21.561
 Cp, KJ/(KG)(K)    1.7295   1.6778   1.5219
 GAMMAs            1.2870   1.2984   1.3394
 SON VEL,M/SEC      623.9    585.1    424.6
 MACH NUMBER        0.000    1.000    2.797

 TRANSPORT PROPERTIES (GASES ONLY)
   CONDUCTIVITY IN UNITS OF MILLIWATTS/(CM)(K)

 VISC,MILLIPOISE  0.34511  0.30558  0.16492

  WITH FROZEN REACTIONS

 Cp, KJ/(KG)(K)    1.7295   1.6778   1.5219
 CONDUCTIVITY      0.6769   0.5710   0.2706
 PRANDTL NUMBER    0.8818   0.8979   0.9277

 PERFORMANCE PARAMETERS

 Ae/At                      1.0000   4.0000
 CSTAR, M/SEC                825.6    825.6
 CF                         0.7087   1.4384
 Ivac, M/SEC                1035.7   1300.9
 Isp, M/SEC                  585.1   1187.6

 MOLE FRACTIONS

 H2O             0.74645   *O2             0.25355

  * THERMODYNAMIC PROPERTIES FITTED TO 20000.K

    PRODUCTS WHICH WERE CONSIDERED BUT WHOSE MOLE FRACTIONS
    WERE LESS THAN 5.000000E-06 FOR ALL ASSIGNED CONDITIONS

 *H              HO2             *H2             H2O2            *O             
 *OH             O3              H2O(cr)        

 NOTE. WEIGHT FRACTION OF FUEL IN TOTAL FUELS AND OF OXIDANT IN TOTAL OXIDANTS






 POINT ITN      T            H           O 
   1    1     784.212     -23.100     -11.980
 Pinf/Pt = 1.824496
   2    3     684.399     -25.859     -12.129
 Pinf/Pt = 1.832146
   2    2     683.741     -25.879     -12.130
 Pinf/Pt = 1.832196
   2    1     683.736     -25.880     -12.130
   3    4     360.926     -45.272     -12.994
 ADD  H2O(L)         
   3    2     368.314     -44.470     -12.997
   3    3     365.719     -44.774     -13.039
   3    2     365.726     -44.774     -13.039





              THEORETICAL ROCKET PERFORMANCE ASSUMING EQUILIBRIUM

           COMPOSITION DURING EXPANSION FROM INFINITE AREA COMBUSTOR

 Pin =   417.0 PSIA
 CASE =                

             REACTANT                    WT FRACTION      ENERGY      TEMP
                                          (SEE NOTE)     KJ/KG-MOL      K  
 FUEL        H2O(L)                       1.0000000   -285841.390    298.000
 OXIDANT     H2O2(L)                      1.0000000   -187793.400    298.000

 O/F=    4.00000  %FUEL= 20.000000  R,EQ.RATIO= 0.595473  PHI,EQ.RATIO= 0.000000

                 CHAMBER   THROAT     EXIT
 Pinf/P            1.0000   1.8322   28.012
 P, BAR            28.750   15.692   1.0263
 T, K              784.21   683.74   365.73
 RHO, KG/CU M    9.5067 0 5.9512 0 7.3563-1
 H, KJ/KG        -7590.08 -7761.26 -8290.27
 U, KJ/KG        -7892.50 -8024.93 -8429.79
 G, KJ/KG        -14971.0 -14196.5 -11732.5
 S, KJ/(KG)(K)     9.4119   9.4119   9.4119

 M, (1/n)          21.561   21.561   21.795
 MW, MOL WT        21.561   21.561   21.561
 (dLV/dLP)t      -1.00000 -1.00000 -3.90162
 (dLV/dLT)p        1.0000   1.0000  40.3033
 Cp, KJ/(KG)(K)    1.7295   1.6778 204.6403
 GAMMAs            1.2870   1.2984   1.1447
 SON VEL,M/SEC      623.9    585.1    399.6
 MACH NUMBER        0.000    1.000    2.961

 TRANSPORT PROPERTIES (GASES ONLY)
   CONDUCTIVITY IN UNITS OF MILLIWATTS/(CM)(K)

 VISC,MILLIPOISE  0.34511  0.30558  0.17243

  WITH EQUILIBRIUM REACTIONS

 Cp, KJ/(KG)(K)    1.7295   1.6778   1.5243
 CONDUCTIVITY      0.6769   0.5710   0.2826
 PRANDTL NUMBER    0.8818   0.8979   0.9301

  WITH FROZEN REACTIONS

 Cp, KJ/(KG)(K)    1.7295   1.6778   1.5243
 CONDUCTIVITY      0.6769   0.5710   0.2826
 PRANDTL NUMBER    0.8818   0.8979   0.9301

 PERFORMANCE PARAMETERS

 Ae/At                      1.0000   4.0000
 CSTAR, M/SEC                825.6    825.6
 CF                         0.7087   1.4333
 Ivac, M/SEC                1035.7   1301.3
 Isp, M/SEC                  585.1   1183.4


 MOLE FRACTIONS

 H2O              0.74645  0.74645  0.73570
 *O2              0.25355  0.25355  0.25355
 H2O(L)           0.00000  0.00000  0.01076

  * THERMODYNAMIC PROPERTIES FITTED TO 20000.K

    PRODUCTS WHICH WERE CONSIDERED BUT WHOSE MOLE FRACTIONS
    WERE LESS THAN 5.000000E-06 FOR ALL ASSIGNED CONDITIONS

 *H              HO2             *H2             H2O2            *O             
 *OH             O3              H2O(cr)        

 NOTE. WEIGHT FRACTION OF FUEL IN TOTAL FUELS AND OF OXIDANT IN TOTAL OXIDANTS





           THEORETICAL ROCKET PERFORMANCE ASSUMING FROZEN COMPOSITION

 Pin =   417.0 PSIA
 CASE =                

             REACTANT                    WT FRACTION      ENERGY      TEMP
                                          (SEE NOTE)     KJ/KG-MOL      K  
 FUEL        H2O(L)                       1.0000000   -285841.390    298.000
 OXIDANT     H2O2(L)                      1.0000000   -187793.400    298.000

 O/F=    4.00000  %FUEL= 20.000000  R,EQ.RATIO= 0.595473  PHI,EQ.RATIO= 0.000000

                 CHAMBER   THROAT     EXIT
 Pinf/P            1.0000   1.8322   29.143
 P, BAR            28.750   15.692  0.98650
 T, K              784.21   683.74   348.98
 RHO, KG/CU M    9.5067 0 5.9512 0 7.3303-1
 H, KJ/KG        -7590.08 -7761.26 -8295.25
 U, KJ/KG        -7892.50 -8024.93 -8429.83
 G, KJ/KG        -14971.0 -14196.5 -11579.8
 S, KJ/(KG)(K)     9.4119   9.4119   9.4119

 M, (1/n)          21.561   21.561   21.561
 MW, MOL WT        21.561   21.561   21.561
 Cp, KJ/(KG)(K)    1.7295   1.6778   1.5219
 GAMMAs            1.2870   1.2984   1.3394
 SON VEL,M/SEC      623.9    585.1    424.6
 MACH NUMBER        0.000    1.000    2.797

 TRANSPORT PROPERTIES (GASES ONLY)
   CONDUCTIVITY IN UNITS OF MILLIWATTS/(CM)(K)

 VISC,MILLIPOISE  0.34511  0.30558  0.16492

  WITH FROZEN REACTIONS

 Cp, KJ/(KG)(K)    1.7295   1.6778   1.5219
 CONDUCTIVITY      0.6769   0.5710   0.2706
 PRANDTL NUMBER    0.8818   0.8979   0.9277

 PERFORMANCE PARAMETERS

 Ae/At                      1.0000   4.0000
 CSTAR, M/SEC                825.6    825.6
 CF                         0.7087   1.4384
 Ivac, M/SEC                1035.7   1300.9
 Isp, M/SEC                  585.1   1187.6

 MOLE FRACTIONS

 H2O             0.74645   *O2             0.25355

  * THERMODYNAMIC PROPERTIES FITTED TO 20000.K

    PRODUCTS WHICH WERE CONSIDERED BUT WHOSE MOLE FRACTIONS
    WERE LESS THAN 5.000000E-06 FOR ALL ASSIGNED CONDITIONS

 *H              HO2             *H2             H2O2            *O             
 *OH             O3              H2O(cr)        

 NOTE. WEIGHT FRACTION OF FUEL IN TOTAL FUELS AND OF OXIDANT IN TOTAL OXIDANTS






 POINT ITN      T            H           O 
   1    1     784.212     -23.098     -11.976
 Pinf/Pt = 1.824496
   2    3     684.399     -25.856     -12.125
 Pinf/Pt = 1.832146
   2    2     683.741     -25.877     -12.126
 Pinf/Pt = 1.832196
   2    1     683.736     -25.877     -12.126
   3    4     360.926     -45.270     -12.989
 ADD  H2O(L)         
   3    2     368.550     -44.443     -12.993
   3    3     365.966     -44.745     -13.035
   3    2     365.973     -44.745     -13.035





              THEORETICAL ROCKET PERFORMANCE ASSUMING EQUILIBRIUM

           COMPOSITION DURING EXPANSION FROM INFINITE AREA COMBUSTOR

 Pin =   420.6 PSIA
 CASE =                

             REACTANT                    WT FRACTION      ENERGY      TEMP
                                          (SEE NOTE)     KJ/KG-MOL      K  
 FUEL        H2O(L)                       1.0000000   -285841.390    298.000
 OXIDANT     H2O2(L)                      1.0000000   -187793.400    298.000

 O/F=    4.00000  %FUEL= 20.000000  R,EQ.RATIO= 0.595473  PHI,EQ.RATIO= 0.000000

                 CHAMBER   THROAT     EXIT
 Pinf/P            1.0000   1.8322   27.997
 P, BAR            29.000   15.828   1.0358
 T, K              784.21   683.74   365.97
 RHO, KG/CU M    9.5894 0 6.0029 0 7.4206-1
 H, KJ/KG        -7590.08 -7761.26 -8290.21
 U, KJ/KG        -7892.50 -8024.93 -8429.80
 G, KJ/KG        -14968.4 -14194.3 -11733.5
 S, KJ/(KG)(K)     9.4086   9.4086   9.4086

 M, (1/n)          21.561   21.561   21.799
 MW, MOL WT        21.561   21.561   21.561
 (dLV/dLP)t      -1.00000 -1.00000 -3.90096
 (dLV/dLT)p        1.0000   1.0000  40.2580
 Cp, KJ/(KG)(K)    1.7295   1.6778 204.1843
 GAMMAs            1.2870   1.2984   1.1449
 SON VEL,M/SEC      623.9    585.1    399.8
 MACH NUMBER        0.000    1.000    2.960

 TRANSPORT PROPERTIES (GASES ONLY)
   CONDUCTIVITY IN UNITS OF MILLIWATTS/(CM)(K)

 VISC,MILLIPOISE  0.34511  0.30558  0.17255

  WITH EQUILIBRIUM REACTIONS

 Cp, KJ/(KG)(K)    1.7295   1.6778   1.5243
 CONDUCTIVITY      0.6769   0.5710   0.2828
 PRANDTL NUMBER    0.8818   0.8979   0.9301

  WITH FROZEN REACTIONS

 Cp, KJ/(KG)(K)    1.7295   1.6778   1.5243
 CONDUCTIVITY      0.6769   0.5710   0.2828
 PRANDTL NUMBER    0.8818   0.8979   0.9301

 PERFORMANCE PARAMETERS

 Ae/At                      1.0000   4.0000
 CSTAR, M/SEC                825.6    825.6
 CF                         0.7087   1.4332
 Ivac, M/SEC                1035.7   1301.3
 Isp, M/SEC                  585.1   1183.3


 MOLE FRACTIONS

 H2O              0.74645  0.74645  0.73553
 *O2              0.25355  0.25355  0.25355
 H2O(L)           0.00000  0.00000  0.01092

  * THERMODYNAMIC PROPERTIES FITTED TO 20000.K

    PRODUCTS WHICH WERE CONSIDERED BUT WHOSE MOLE FRACTIONS
    WERE LESS THAN 5.000000E-06 FOR ALL ASSIGNED CONDITIONS

 *H              HO2             *H2             H2O2            *O             
 *OH             O3              H2O(cr)        

 NOTE. WEIGHT FRACTION OF FUEL IN TOTAL FUELS AND OF OXIDANT IN TOTAL OXIDANTS





           THEORETICAL ROCKET PERFORMANCE ASSUMING FROZEN COMPOSITION

 Pin =   420.6 PSIA
 CASE =                

             REACTANT                    WT FRACTION      ENERGY      TEMP
                                          (SEE NOTE)     KJ/KG-MOL      K  
 FUEL        H2O(L)                       1.0000000   -285841.390    298.000
 OXIDANT     H2O2(L)                      1.0000000   -187793.400    298.000

 O/F=    4.00000  %FUEL= 20.000000  R,EQ.RATIO= 0.595473  PHI,EQ.RATIO= 0.000000

                 CHAMBER   THROAT     EXIT
 Pinf/P            1.0000   1.8322   29.143
 P, BAR            29.000   15.828  0.99508
 T, K              784.21   683.74   348.98
 RHO, KG/CU M    9.5894 0 6.0029 0 7.3941-1
 H, KJ/KG        -7590.08 -7761.26 -8295.25
 U, KJ/KG        -7892.50 -8024.93 -8429.83
 G, KJ/KG        -14968.4 -14194.3 -11578.7
 S, KJ/(KG)(K)     9.4086   9.4086   9.4086

 M, (1/n)          21.561   21.561   21.561
 MW, MOL WT        21.561   21.561   21.561
 Cp, KJ/(KG)(K)    1.7295   1.6778   1.5219
 GAMMAs            1.2870   1.2984   1.3394
 SON VEL,M/SEC      623.9    585.1    424.6
 MACH NUMBER        0.000    1.000    2.797

 TRANSPORT PROPERTIES (GASES ONLY)
   CONDUCTIVITY IN UNITS OF MILLIWATTS/(CM)(K)

 VISC,MILLIPOISE  0.34511  0.30558  0.16492

  WITH FROZEN REACTIONS

 Cp, KJ/(KG)(K)    1.7295   1.6778   1.5219
 CONDUCTIVITY      0.6769   0.5710   0.2706
 PRANDTL NUMBER    0.8818   0.8979   0.9277

 PERFORMANCE PARAMETERS

 Ae/At                      1.0000   4.0000
 CSTAR, M/SEC                825.6    825.6
 CF                         0.7087   1.4384
 Ivac, M/SEC                1035.7   1300.9
 Isp, M/SEC                  585.1   1187.6

 MOLE FRACTIONS

 H2O             0.74645   *O2             0.25355

  * THERMODYNAMIC PROPERTIES FITTED TO 20000.K

    PRODUCTS WHICH WERE CONSIDERED BUT WHOSE MOLE FRACTIONS
    WERE LESS THAN 5.000000E-06 FOR ALL ASSIGNED CONDITIONS

 *H              HO2             *H2             H2O2            *O             
 *OH             O3              H2O(cr)        

 NOTE. WEIGHT FRACTION OF FUEL IN TOTAL FUELS AND OF OXIDANT IN TOTAL OXIDANTS






 POINT ITN      T            H           O 
   1    1     784.212     -23.096     -11.972
 Pinf/Pt = 1.824496
   2    3     684.399     -25.854     -12.121
 Pinf/Pt = 1.832146
   2    2     683.741     -25.875     -12.122
 Pinf/Pt = 1.832196
   2    1     683.736     -25.875     -12.122
   3    4     360.926     -45.267     -12.985
 ADD  H2O(L)         
   3    2     368.784     -44.416     -12.989
   3    3     366.212     -44.717     -13.030
   3    2     366.219     -44.716     -13.030





              THEORETICAL ROCKET PERFORMANCE ASSUMING EQUILIBRIUM

           COMPOSITION DURING EXPANSION FROM INFINITE AREA COMBUSTOR

 Pin =   424.2 PSIA
 CASE =                

             REACTANT                    WT FRACTION      ENERGY      TEMP
                                          (SEE NOTE)     KJ/KG-MOL      K  
 FUEL        H2O(L)                       1.0000000   -285841.390    298.000
 OXIDANT     H2O2(L)                      1.0000000   -187793.400    298.000

 O/F=    4.00000  %FUEL= 20.000000  R,EQ.RATIO= 0.595473  PHI,EQ.RATIO= 0.000000

                 CHAMBER   THROAT     EXIT
 Pinf/P            1.0000   1.8322   27.981
 P, BAR            29.250   15.964   1.0453
 T, K              784.21   683.74   366.22
 RHO, KG/CU M    9.6721 0 6.0547 0 7.4849-1
 H, KJ/KG        -7590.08 -7761.26 -8290.15
 U, KJ/KG        -7892.50 -8024.93 -8429.81
 G, KJ/KG        -14965.8 -14192.0 -11734.5
 S, KJ/(KG)(K)     9.4053   9.4053   9.4053

 M, (1/n)          21.561   21.561   21.803
 MW, MOL WT        21.561   21.561   21.561
 (dLV/dLP)t      -1.00000 -1.00000 -3.90031
 (dLV/dLT)p        1.0000   1.0000  40.2130
 Cp, KJ/(KG)(K)    1.7295   1.6778 203.7326
 GAMMAs            1.2870   1.2984   1.1450
 SON VEL,M/SEC      623.9    585.1    399.9
 MACH NUMBER        0.000    1.000    2.959

 TRANSPORT PROPERTIES (GASES ONLY)
   CONDUCTIVITY IN UNITS OF MILLIWATTS/(CM)(K)

 VISC,MILLIPOISE  0.34511  0.30558  0.17266

  WITH EQUILIBRIUM REACTIONS

 Cp, KJ/(KG)(K)    1.7295   1.6778   1.5244
 CONDUCTIVITY      0.6769   0.5710   0.2830
 PRANDTL NUMBER    0.8818   0.8979   0.9301

  WITH FROZEN REACTIONS

 Cp, KJ/(KG)(K)    1.7295   1.6778   1.5244
 CONDUCTIVITY      0.6769   0.5710   0.2830
 PRANDTL NUMBER    0.8818   0.8979   0.9301

 PERFORMANCE PARAMETERS

 Ae/At                     1.00000   4.0000
 CSTAR, M/SEC                825.6    825.6
 CF                         0.7087   1.4331
 Ivac, M/SEC                1035.7   1301.3
 Isp, M/SEC                  585.1   1183.3


 MOLE FRACTIONS

 H2O              0.74645  0.74645  0.73536
 *O2              0.25355  0.25355  0.25355
 H2O(L)           0.00000  0.00000  0.01109

  * THERMODYNAMIC PROPERTIES FITTED TO 20000.K

    PRODUCTS WHICH WERE CONSIDERED BUT WHOSE MOLE FRACTIONS
    WERE LESS THAN 5.000000E-06 FOR ALL ASSIGNED CONDITIONS

 *H              HO2             *H2             H2O2            *O             
 *OH             O3              H2O(cr)        

 NOTE. WEIGHT FRACTION OF FUEL IN TOTAL FUELS AND OF OXIDANT IN TOTAL OXIDANTS





           THEORETICAL ROCKET PERFORMANCE ASSUMING FROZEN COMPOSITION

 Pin =   424.2 PSIA
 CASE =                

             REACTANT                    WT FRACTION      ENERGY      TEMP
                                          (SEE NOTE)     KJ/KG-MOL      K  
 FUEL        H2O(L)                       1.0000000   -285841.390    298.000
 OXIDANT     H2O2(L)                      1.0000000   -187793.400    298.000

 O/F=    4.00000  %FUEL= 20.000000  R,EQ.RATIO= 0.595473  PHI,EQ.RATIO= 0.000000

                 CHAMBER   THROAT     EXIT
 Pinf/P            1.0000   1.8322   29.143
 P, BAR            29.250   15.964   1.0037
 T, K              784.21   683.74   348.98
 RHO, KG/CU M    9.6721 0 6.0547 0 7.4578-1
 H, KJ/KG        -7590.08 -7761.26 -8295.25
 U, KJ/KG        -7892.50 -8024.93 -8429.83
 G, KJ/KG        -14965.8 -14192.0 -11577.5
 S, KJ/(KG)(K)     9.4053   9.4053   9.4053

 M, (1/n)          21.561   21.561   21.561
 MW, MOL WT        21.561   21.561   21.561
 Cp, KJ/(KG)(K)    1.7295   1.6778   1.5219
 GAMMAs            1.2870   1.2984   1.3394
 SON VEL,M/SEC      623.9    585.1    424.6
 MACH NUMBER        0.000    1.000    2.797

 TRANSPORT PROPERTIES (GASES ONLY)
   CONDUCTIVITY IN UNITS OF MILLIWATTS/(CM)(K)

 VISC,MILLIPOISE  0.34511  0.30558  0.16492

  WITH FROZEN REACTIONS

 Cp, KJ/(KG)(K)    1.7295   1.6778   1.5219
 CONDUCTIVITY      0.6769   0.5710   0.2706
 PRANDTL NUMBER    0.8818   0.8979   0.9277

 PERFORMANCE PARAMETERS

 Ae/At                      1.0000   4.0000
 CSTAR, M/SEC                825.6    825.6
 CF                         0.7087   1.4384
 Ivac, M/SEC                1035.7   1300.9
 Isp, M/SEC                  585.1   1187.6

 MOLE FRACTIONS

 H2O             0.74645   *O2             0.25355

  * THERMODYNAMIC PROPERTIES FITTED TO 20000.K

    PRODUCTS WHICH WERE CONSIDERED BUT WHOSE MOLE FRACTIONS
    WERE LESS THAN 5.000000E-06 FOR ALL ASSIGNED CONDITIONS

 *H              HO2             *H2             H2O2            *O             
 *OH             O3              H2O(cr)        

 NOTE. WEIGHT FRACTION OF FUEL IN TOTAL FUELS AND OF OXIDANT IN TOTAL OXIDANTS






 POINT ITN      T            H           O 
   1    1     784.212     -23.094     -11.968
 Pinf/Pt = 1.824496
   2    3     684.399     -25.852     -12.116
 Pinf/Pt = 1.832146
   2    2     683.741     -25.873     -12.118
 Pinf/Pt = 1.832196
   2    1     683.736     -25.873     -12.118
   3    4     360.926     -45.265     -12.981
 ADD  H2O(L)         
   3    2     369.017     -44.389     -12.985
   3    3     366.456     -44.688     -13.026
   3    2     366.463     -44.687     -13.026





              THEORETICAL ROCKET PERFORMANCE ASSUMING EQUILIBRIUM

           COMPOSITION DURING EXPANSION FROM INFINITE AREA COMBUSTOR

 Pin =   427.9 PSIA
 CASE =                

             REACTANT                    WT FRACTION      ENERGY      TEMP
                                          (SEE NOTE)     KJ/KG-MOL      K  
 FUEL        H2O(L)                       1.0000000   -285841.390    298.000
 OXIDANT     H2O2(L)                      1.0000000   -187793.400    298.000

 O/F=    4.00000  %FUEL= 20.000000  R,EQ.RATIO= 0.595473  PHI,EQ.RATIO= 0.000000

                 CHAMBER   THROAT     EXIT
 Pinf/P            1.0000   1.8322   27.966
 P, BAR            29.500   16.101   1.0548
 T, K              784.21   683.74   366.46
 RHO, KG/CU M    9.7547 0 6.1064 0 7.5493-1
 H, KJ/KG        -7590.08 -7761.26 -8290.08
 U, KJ/KG        -7892.50 -8024.93 -8429.81
 G, KJ/KG        -14963.2 -14189.7 -11735.6
 S, KJ/(KG)(K)     9.4020   9.4020   9.4020

 M, (1/n)          21.561   21.561   21.806
 MW, MOL WT        21.561   21.561   21.561
 (dLV/dLP)t      -1.00000 -1.00000 -3.89966
 (dLV/dLT)p        1.0000   1.0000  40.1684
 Cp, KJ/(KG)(K)    1.7295   1.6778 203.2850
 GAMMAs            1.2870   1.2984   1.1451
 SON VEL,M/SEC      623.9    585.1    400.0
 MACH NUMBER        0.000    1.000    2.958

 TRANSPORT PROPERTIES (GASES ONLY)
   CONDUCTIVITY IN UNITS OF MILLIWATTS/(CM)(K)

 VISC,MILLIPOISE  0.34511  0.30558  0.17277

  WITH EQUILIBRIUM REACTIONS

 Cp, KJ/(KG)(K)    1.7295   1.6778   1.5244
 CONDUCTIVITY      0.6769   0.5710   0.2832
 PRANDTL NUMBER    0.8818   0.8979   0.9301

  WITH FROZEN REACTIONS

 Cp, KJ/(KG)(K)    1.7295   1.6778   1.5244
 CONDUCTIVITY      0.6769   0.5710   0.2832
 PRANDTL NUMBER    0.8818   0.8979   0.9301

 PERFORMANCE PARAMETERS

 Ae/At                      1.0000   4.0000
 CSTAR, M/SEC                825.6    825.6
 CF                         0.7087   1.4331
 Ivac, M/SEC                1035.7   1301.3
 Isp, M/SEC                  585.1   1183.2


 MOLE FRACTIONS

 H2O              0.74645  0.74645  0.73520
 *O2              0.25355  0.25355  0.25355
 H2O(L)           0.00000  0.00000  0.01126

  * THERMODYNAMIC PROPERTIES FITTED TO 20000.K

    PRODUCTS WHICH WERE CONSIDERED BUT WHOSE MOLE FRACTIONS
    WERE LESS THAN 5.000000E-06 FOR ALL ASSIGNED CONDITIONS

 *H              HO2             *H2             H2O2            *O             
 *OH             O3              H2O(cr)        

 NOTE. WEIGHT FRACTION OF FUEL IN TOTAL FUELS AND OF OXIDANT IN TOTAL OXIDANTS





           THEORETICAL ROCKET PERFORMANCE ASSUMING FROZEN COMPOSITION

 Pin =   427.9 PSIA
 CASE =                

             REACTANT                    WT FRACTION      ENERGY      TEMP
                                          (SEE NOTE)     KJ/KG-MOL      K  
 FUEL        H2O(L)                       1.0000000   -285841.390    298.000
 OXIDANT     H2O2(L)                      1.0000000   -187793.400    298.000

 O/F=    4.00000  %FUEL= 20.000000  R,EQ.RATIO= 0.595473  PHI,EQ.RATIO= 0.000000

                 CHAMBER   THROAT     EXIT
 Pinf/P            1.0000   1.8322   29.143
 P, BAR            29.500   16.101   1.0122
 T, K              784.21   683.74   348.98
 RHO, KG/CU M    9.7547 0 6.1064 0 7.5215-1
 H, KJ/KG        -7590.08 -7761.26 -8295.25
 U, KJ/KG        -7892.50 -8024.93 -8429.83
 G, KJ/KG        -14963.2 -14189.7 -11576.4
 S, KJ/(KG)(K)     9.4020   9.4020   9.4020

 M, (1/n)          21.561   21.561   21.561
 MW, MOL WT        21.561   21.561   21.561
 Cp, KJ/(KG)(K)    1.7295   1.6778   1.5219
 GAMMAs            1.2870   1.2984   1.3394
 SON VEL,M/SEC      623.9    585.1    424.6
 MACH NUMBER        0.000    1.000    2.797

 TRANSPORT PROPERTIES (GASES ONLY)
   CONDUCTIVITY IN UNITS OF MILLIWATTS/(CM)(K)

 VISC,MILLIPOISE  0.34511  0.30558  0.16492

  WITH FROZEN REACTIONS

 Cp, KJ/(KG)(K)    1.7295   1.6778   1.5219
 CONDUCTIVITY      0.6769   0.5710   0.2706
 PRANDTL NUMBER    0.8818   0.8979   0.9277

 PERFORMANCE PARAMETERS

 Ae/At                      1.0000   4.0000
 CSTAR, M/SEC                825.6    825.6
 CF                         0.7087   1.4384
 Ivac, M/SEC                1035.7   1300.9
 Isp, M/SEC                  585.1   1187.6

 MOLE FRACTIONS

 H2O             0.74645   *O2             0.25355

  * THERMODYNAMIC PROPERTIES FITTED TO 20000.K

    PRODUCTS WHICH WERE CONSIDERED BUT WHOSE MOLE FRACTIONS
    WERE LESS THAN 5.000000E-06 FOR ALL ASSIGNED CONDITIONS

 *H              HO2             *H2             H2O2            *O             
 *OH             O3              H2O(cr)        

 NOTE. WEIGHT FRACTION OF FUEL IN TOTAL FUELS AND OF OXIDANT IN TOTAL OXIDANTS






 POINT ITN      T            H           O 
   1    1     784.212     -23.092     -11.963
 Pinf/Pt = 1.824496
   2    3     684.399     -25.850     -12.112
 Pinf/Pt = 1.832146
   2    2     683.741     -25.871     -12.113
 Pinf/Pt = 1.832196
   2    1     683.736     -25.871     -12.113
   3    4     360.926     -45.263     -12.977
 ADD  H2O(L)         
   3    2     369.248     -44.363     -12.981
   3    3     366.698     -44.660     -13.022
   3    2     366.705     -44.659     -13.022





              THEORETICAL ROCKET PERFORMANCE ASSUMING EQUILIBRIUM

           COMPOSITION DURING EXPANSION FROM INFINITE AREA COMBUSTOR

 Pin =   431.5 PSIA
 CASE =                

             REACTANT                    WT FRACTION      ENERGY      TEMP
                                          (SEE NOTE)     KJ/KG-MOL      K  
 FUEL        H2O(L)                       1.0000000   -285841.390    298.000
 OXIDANT     H2O2(L)                      1.0000000   -187793.400    298.000

 O/F=    4.00000  %FUEL= 20.000000  R,EQ.RATIO= 0.595473  PHI,EQ.RATIO= 0.000000

                 CHAMBER   THROAT     EXIT
 Pinf/P            1.0000   1.8322   27.951
 P, BAR            29.750   16.237   1.0644
 T, K              784.21   683.74   366.71
 RHO, KG/CU M    9.8374 0 6.1582 0 7.6136-1
 H, KJ/KG        -7590.08 -7761.26 -8290.02
 U, KJ/KG        -7892.50 -8024.93 -8429.82
 G, KJ/KG        -14960.7 -14187.5 -11736.6
 S, KJ/(KG)(K)     9.3987   9.3987   9.3987

 M, (1/n)          21.561   21.561   21.810
 MW, MOL WT        21.561   21.561   21.561
 (dLV/dLP)t      -1.00000 -1.00000 -3.89901
 (dLV/dLT)p        1.0000   1.0000  40.1242
 Cp, KJ/(KG)(K)    1.7295   1.6778 202.8415
 GAMMAs            1.2870   1.2984   1.1452
 SON VEL,M/SEC      623.9    585.1    400.1
 MACH NUMBER        0.000    1.000    2.957

 TRANSPORT PROPERTIES (GASES ONLY)
   CONDUCTIVITY IN UNITS OF MILLIWATTS/(CM)(K)

 VISC,MILLIPOISE  0.34511  0.30558  0.17288

  WITH EQUILIBRIUM REACTIONS

 Cp, KJ/(KG)(K)    1.7295   1.6778   1.5244
 CONDUCTIVITY      0.6769   0.5710   0.2833
 PRANDTL NUMBER    0.8818   0.8979   0.9302

  WITH FROZEN REACTIONS

 Cp, KJ/(KG)(K)    1.7295   1.6778   1.5244
 CONDUCTIVITY      0.6769   0.5710   0.2833
 PRANDTL NUMBER    0.8818   0.8979   0.9302

 PERFORMANCE PARAMETERS

 Ae/At                      1.0000   4.0000
 CSTAR, M/SEC                825.6    825.6
 CF                         0.7087   1.4330
 Ivac, M/SEC                1035.7   1301.3
 Isp, M/SEC                  585.1   1183.2


 MOLE FRACTIONS

 H2O              0.74645  0.74645  0.73503
 *O2              0.25355  0.25355  0.25355
 H2O(L)           0.00000  0.00000  0.01142

  * THERMODYNAMIC PROPERTIES FITTED TO 20000.K

    PRODUCTS WHICH WERE CONSIDERED BUT WHOSE MOLE FRACTIONS
    WERE LESS THAN 5.000000E-06 FOR ALL ASSIGNED CONDITIONS

 *H              HO2             *H2             H2O2            *O             
 *OH             O3              H2O(cr)        

 NOTE. WEIGHT FRACTION OF FUEL IN TOTAL FUELS AND OF OXIDANT IN TOTAL OXIDANTS





           THEORETICAL ROCKET PERFORMANCE ASSUMING FROZEN COMPOSITION

 Pin =   431.5 PSIA
 CASE =                

             REACTANT                    WT FRACTION      ENERGY      TEMP
                                          (SEE NOTE)     KJ/KG-MOL      K  
 FUEL        H2O(L)                       1.0000000   -285841.390    298.000
 OXIDANT     H2O2(L)                      1.0000000   -187793.400    298.000

 O/F=    4.00000  %FUEL= 20.000000  R,EQ.RATIO= 0.595473  PHI,EQ.RATIO= 0.000000

                 CHAMBER   THROAT     EXIT
 Pinf/P            1.0000   1.8322   29.143
 P, BAR            29.750   16.237   1.0208
 T, K              784.21   683.74   348.98
 RHO, KG/CU M    9.8374 0 6.1582 0 7.5853-1
 H, KJ/KG        -7590.08 -7761.26 -8295.25
 U, KJ/KG        -7892.50 -8024.93 -8429.83
 G, KJ/KG        -14960.7 -14187.5 -11575.2
 S, KJ/(KG)(K)     9.3987   9.3987   9.3987

 M, (1/n)          21.561   21.561   21.561
 MW, MOL WT        21.561   21.561   21.561
 Cp, KJ/(KG)(K)    1.7295   1.6778   1.5219
 GAMMAs            1.2870   1.2984   1.3394
 SON VEL,M/SEC      623.9    585.1    424.6
 MACH NUMBER        0.000    1.000    2.797

 TRANSPORT PROPERTIES (GASES ONLY)
   CONDUCTIVITY IN UNITS OF MILLIWATTS/(CM)(K)

 VISC,MILLIPOISE  0.34511  0.30558  0.16492

  WITH FROZEN REACTIONS

 Cp, KJ/(KG)(K)    1.7295   1.6778   1.5219
 CONDUCTIVITY      0.6769   0.5710   0.2706
 PRANDTL NUMBER    0.8818   0.8979   0.9277

 PERFORMANCE PARAMETERS

 Ae/At                      1.0000   4.0000
 CSTAR, M/SEC                825.6    825.6
 CF                         0.7087   1.4384
 Ivac, M/SEC                1035.7   1300.9
 Isp, M/SEC                  585.1   1187.6

 MOLE FRACTIONS

 H2O             0.74645   *O2             0.25355

  * THERMODYNAMIC PROPERTIES FITTED TO 20000.K

    PRODUCTS WHICH WERE CONSIDERED BUT WHOSE MOLE FRACTIONS
    WERE LESS THAN 5.000000E-06 FOR ALL ASSIGNED CONDITIONS

 *H              HO2             *H2             H2O2            *O             
 *OH             O3              H2O(cr)        

 NOTE. WEIGHT FRACTION OF FUEL IN TOTAL FUELS AND OF OXIDANT IN TOTAL OXIDANTS






 O/F =   4.100000

                       EFFECTIVE FUEL     EFFECTIVE OXIDANT        MIXTURE
 ENTHALPY                  h(2)/R              h(1)/R               h0/R
 (KG-MOL)(K)/KG       -0.19083035E+04     -0.66401406E+03     -0.90799237E+03

 KG-FORM.WT./KG             bi(2)               bi(1)               b0i
  *H                   0.11101687E+00      0.58798142E-01      0.69037109E-01
  *O                   0.55508435E-01      0.58798142E-01      0.58153102E-01

 POINT ITN      T            H           O 
   1    2     793.871     -22.893     -12.005
 Pinf/Pt = 1.823899
   2    3     693.122     -25.609     -12.153
 Pinf/Pt = 1.831565
   2    2     692.456     -25.629     -12.154
 Pinf/Pt = 1.831615
   2    1     692.452     -25.629     -12.154
   3    4     366.007     -44.724     -13.008
 ADD  H2O(L)         
   3    2     367.606     -44.553     -13.009
   3    3     364.640     -44.902     -13.057
   3    2     364.649     -44.901     -13.057





              THEORETICAL ROCKET PERFORMANCE ASSUMING EQUILIBRIUM

           COMPOSITION DURING EXPANSION FROM INFINITE AREA COMBUSTOR

 Pin =   406.1 PSIA
 CASE =                

             REACTANT                    WT FRACTION      ENERGY      TEMP
                                          (SEE NOTE)     KJ/KG-MOL      K  
 FUEL        H2O(L)                       1.0000000   -285841.390    298.000
 OXIDANT     H2O2(L)                      1.0000000   -187793.400    298.000

 O/F=    4.10000  %FUEL= 19.607843  R,EQ.RATIO= 0.593581  PHI,EQ.RATIO= 0.000000

                 CHAMBER   THROAT     EXIT
 Pinf/P            1.0000   1.8316   28.377
 P, BAR            28.000   15.287  0.98672
 T, K              793.87   692.45   364.65
 RHO, KG/CU M    9.1549 0 5.7303 0 7.0718-1
 H, KJ/KG        -7549.51 -7722.58 -8259.73
 U, KJ/KG        -7855.36 -7989.35 -8399.26
 G, KJ/KG        -15040.2 -14256.3 -11700.4
 S, KJ/(KG)(K)     9.4357   9.4357   9.4357

 M, (1/n)          21.582   21.582   21.730
 MW, MOL WT        21.582   21.582   21.582
 (dLV/dLP)t      -1.00000 -1.00000 -3.89433
 (dLV/dLT)p        1.0000   1.0000  40.3633
 Cp, KJ/(KG)(K)    1.7325   1.6804 206.3813
 GAMMAs            1.2860   1.2975   1.1445
 SON VEL,M/SEC      627.1    588.3    399.6
 MACH NUMBER        0.000    1.000    2.982

 TRANSPORT PROPERTIES (GASES ONLY)
   CONDUCTIVITY IN UNITS OF MILLIWATTS/(CM)(K)

 VISC,MILLIPOISE  0.34909  0.30935  0.17206

  WITH EQUILIBRIUM REACTIONS

 Cp, KJ/(KG)(K)    1.7325   1.6804   1.5233
 CONDUCTIVITY      0.6872   0.5800   0.2819
 PRANDTL NUMBER    0.8801   0.8962   0.9298

  WITH FROZEN REACTIONS

 Cp, KJ/(KG)(K)    1.7325   1.6804   1.5233
 CONDUCTIVITY      0.6872   0.5800   0.2819
 PRANDTL NUMBER    0.8801   0.8962   0.9298

 PERFORMANCE PARAMETERS

 Ae/At                      1.0000   4.0000
 CSTAR, M/SEC                830.5    830.5
 CF                         0.7084   1.4350
 Ivac, M/SEC                1041.8   1308.9
 Isp, M/SEC                  588.3   1191.8


 MOLE FRACTIONS

 H2O              0.74496  0.74496  0.73816
 *O2              0.25504  0.25504  0.25504
 H2O(L)           0.00000  0.00000  0.00681

  * THERMODYNAMIC PROPERTIES FITTED TO 20000.K

    PRODUCTS WHICH WERE CONSIDERED BUT WHOSE MOLE FRACTIONS
    WERE LESS THAN 5.000000E-06 FOR ALL ASSIGNED CONDITIONS

 *H              HO2             *H2             H2O2            *O             
 *OH             O3              H2O(cr)        

 NOTE. WEIGHT FRACTION OF FUEL IN TOTAL FUELS AND OF OXIDANT IN TOTAL OXIDANTS





           THEORETICAL ROCKET PERFORMANCE ASSUMING FROZEN COMPOSITION

 Pin =   406.1 PSIA
 CASE =                

             REACTANT                    WT FRACTION      ENERGY      TEMP
                                          (SEE NOTE)     KJ/KG-MOL      K  
 FUEL        H2O(L)                       1.0000000   -285841.390    298.000
 OXIDANT     H2O2(L)                      1.0000000   -187793.400    298.000

 O/F=    4.10000  %FUEL= 19.607843  R,EQ.RATIO= 0.593581  PHI,EQ.RATIO= 0.000000

                 CHAMBER   THROAT     EXIT
 Pinf/P            1.0000   1.8316   29.104
 P, BAR            28.000   15.287  0.96206
 T, K              793.87   692.45   353.94
 RHO, KG/CU M    9.1549 0 5.7303 0 7.0554-1
 H, KJ/KG        -7549.51 -7722.58 -8263.04
 U, KJ/KG        -7855.36 -7989.35 -8399.40
 G, KJ/KG        -15040.2 -14256.3 -11602.7
 S, KJ/(KG)(K)     9.4357   9.4357   9.4357

 M, (1/n)          21.582   21.582   21.582
 MW, MOL WT        21.582   21.582   21.582
 Cp, KJ/(KG)(K)    1.7325   1.6804   1.5218
 GAMMAs            1.2860   1.2975   1.3390
 SON VEL,M/SEC      627.1    588.3    427.3
 MACH NUMBER        0.000    1.000    2.796

 TRANSPORT PROPERTIES (GASES ONLY)
   CONDUCTIVITY IN UNITS OF MILLIWATTS/(CM)(K)

 VISC,MILLIPOISE  0.34909  0.30935  0.16725

  WITH FROZEN REACTIONS

 Cp, KJ/(KG)(K)    1.7325   1.6804   1.5218
 CONDUCTIVITY      0.6872   0.5800   0.2742
 PRANDTL NUMBER    0.8801   0.8962   0.9284

 PERFORMANCE PARAMETERS

 Ae/At                      1.0000   4.0000
 CSTAR, M/SEC                830.5    830.5
 CF                         0.7084   1.4383
 Ivac, M/SEC                1041.8   1308.7
 Isp, M/SEC                  588.3   1194.6

 MOLE FRACTIONS

 H2O             0.74496   *O2             0.25504

  * THERMODYNAMIC PROPERTIES FITTED TO 20000.K

    PRODUCTS WHICH WERE CONSIDERED BUT WHOSE MOLE FRACTIONS
    WERE LESS THAN 5.000000E-06 FOR ALL ASSIGNED CONDITIONS

 *H              HO2             *H2             H2O2            *O             
 *OH             O3              H2O(cr)        

 NOTE. WEIGHT FRACTION OF FUEL IN TOTAL FUELS AND OF OXIDANT IN TOTAL OXIDANTS






 POINT ITN      T            H           O 
   1    1     793.871     -22.891     -12.001
 Pinf/Pt = 1.823899
   2    3     693.122     -25.607     -12.148
 Pinf/Pt = 1.831565
   2    2     692.456     -25.627     -12.150
 Pinf/Pt = 1.831615
   2    1     692.452     -25.627     -12.150
   3    4     366.007     -44.722     -13.003
 ADD  H2O(L)         
   3    2     367.847     -44.525     -13.004
   3    3     364.892     -44.872     -13.053
   3    2     364.902     -44.871     -13.052





              THEORETICAL ROCKET PERFORMANCE ASSUMING EQUILIBRIUM

           COMPOSITION DURING EXPANSION FROM INFINITE AREA COMBUSTOR

 Pin =   409.7 PSIA
 CASE =                

             REACTANT                    WT FRACTION      ENERGY      TEMP
                                          (SEE NOTE)     KJ/KG-MOL      K  
 FUEL        H2O(L)                       1.0000000   -285841.390    298.000
 OXIDANT     H2O2(L)                      1.0000000   -187793.400    298.000

 O/F=    4.10000  %FUEL= 19.607843  R,EQ.RATIO= 0.593581  PHI,EQ.RATIO= 0.000000

                 CHAMBER   THROAT     EXIT
 Pinf/P            1.0000   1.8316   28.361
 P, BAR            28.250   15.424  0.99610
 T, K              793.87   692.45   364.90
 RHO, KG/CU M    9.2367 0 5.7815 0 7.1353-1
 H, KJ/KG        -7549.51 -7722.58 -8259.66
 U, KJ/KG        -7855.36 -7989.35 -8399.26
 G, KJ/KG        -15037.5 -14253.9 -11701.5
 S, KJ/(KG)(K)     9.4322   9.4322   9.4322

 M, (1/n)          21.582   21.582   21.733
 MW, MOL WT        21.582   21.582   21.582
 (dLV/dLP)t      -1.00000 -1.00000 -3.89368
 (dLV/dLT)p        1.0000   1.0000  40.3171
 Cp, KJ/(KG)(K)    1.7325   1.6804 205.9138
 GAMMAs            1.2860   1.2975   1.1446
 SON VEL,M/SEC      627.1    588.3    399.7
 MACH NUMBER        0.000    1.000    2.981

 TRANSPORT PROPERTIES (GASES ONLY)
   CONDUCTIVITY IN UNITS OF MILLIWATTS/(CM)(K)

 VISC,MILLIPOISE  0.34909  0.30935  0.17218

  WITH EQUILIBRIUM REACTIONS

 Cp, KJ/(KG)(K)    1.7325   1.6804   1.5234
 CONDUCTIVITY      0.6872   0.5800   0.2821
 PRANDTL NUMBER    0.8801   0.8962   0.9298

  WITH FROZEN REACTIONS

 Cp, KJ/(KG)(K)    1.7325   1.6804   1.5234
 CONDUCTIVITY      0.6872   0.5800   0.2821
 PRANDTL NUMBER    0.8801   0.8962   0.9298

 PERFORMANCE PARAMETERS

 Ae/At                      1.0000   4.0000
 CSTAR, M/SEC                830.5    830.5
 CF                         0.7084   1.4349
 Ivac, M/SEC                1041.8   1308.9
 Isp, M/SEC                  588.3   1191.8


 MOLE FRACTIONS

 H2O              0.74496  0.74496  0.73799
 *O2              0.25504  0.25504  0.25504
 H2O(L)           0.00000  0.00000  0.00697

  * THERMODYNAMIC PROPERTIES FITTED TO 20000.K

    PRODUCTS WHICH WERE CONSIDERED BUT WHOSE MOLE FRACTIONS
    WERE LESS THAN 5.000000E-06 FOR ALL ASSIGNED CONDITIONS

 *H              HO2             *H2             H2O2            *O             
 *OH             O3              H2O(cr)        

 NOTE. WEIGHT FRACTION OF FUEL IN TOTAL FUELS AND OF OXIDANT IN TOTAL OXIDANTS





           THEORETICAL ROCKET PERFORMANCE ASSUMING FROZEN COMPOSITION

 Pin =   409.7 PSIA
 CASE =                

             REACTANT                    WT FRACTION      ENERGY      TEMP
                                          (SEE NOTE)     KJ/KG-MOL      K  
 FUEL        H2O(L)                       1.0000000   -285841.390    298.000
 OXIDANT     H2O2(L)                      1.0000000   -187793.400    298.000

 O/F=    4.10000  %FUEL= 19.607843  R,EQ.RATIO= 0.593581  PHI,EQ.RATIO= 0.000000

                 CHAMBER   THROAT     EXIT
 Pinf/P            1.0000   1.8316   29.104
 P, BAR            28.250   15.424  0.97065
 T, K              793.87   692.45   353.94
 RHO, KG/CU M    9.2367 0 5.7815 0 7.1184-1
 H, KJ/KG        -7549.51 -7722.58 -8263.04
 U, KJ/KG        -7855.36 -7989.35 -8399.40
 G, KJ/KG        -15037.5 -14253.9 -11601.5
 S, KJ/(KG)(K)     9.4322   9.4322   9.4322

 M, (1/n)          21.582   21.582   21.582
 MW, MOL WT        21.582   21.582   21.582
 Cp, KJ/(KG)(K)    1.7325   1.6804   1.5218
 GAMMAs            1.2860   1.2975   1.3390
 SON VEL,M/SEC      627.1    588.3    427.3
 MACH NUMBER        0.000    1.000    2.796

 TRANSPORT PROPERTIES (GASES ONLY)
   CONDUCTIVITY IN UNITS OF MILLIWATTS/(CM)(K)

 VISC,MILLIPOISE  0.34909  0.30935  0.16725

  WITH FROZEN REACTIONS

 Cp, KJ/(KG)(K)    1.7325   1.6804   1.5218
 CONDUCTIVITY      0.6872   0.5800   0.2742
 PRANDTL NUMBER    0.8801   0.8962   0.9284

 PERFORMANCE PARAMETERS

 Ae/At                      1.0000   4.0000
 CSTAR, M/SEC                830.5    830.5
 CF                         0.7084   1.4383
 Ivac, M/SEC                1041.8   1308.7
 Isp, M/SEC                  588.3   1194.6

 MOLE FRACTIONS

 H2O             0.74496   *O2             0.25504

  * THERMODYNAMIC PROPERTIES FITTED TO 20000.K

    PRODUCTS WHICH WERE CONSIDERED BUT WHOSE MOLE FRACTIONS
    WERE LESS THAN 5.000000E-06 FOR ALL ASSIGNED CONDITIONS

 *H              HO2             *H2             H2O2            *O             
 *OH             O3              H2O(cr)        

 NOTE. WEIGHT FRACTION OF FUEL IN TOTAL FUELS AND OF OXIDANT IN TOTAL OXIDANTS






 POINT ITN      T            H           O 
   1    1     793.871     -22.888     -11.996
 Pinf/Pt = 1.823899
   2    3     693.122     -25.604     -12.144
 Pinf/Pt = 1.831565
   2    2     692.456     -25.625     -12.145
 Pinf/Pt = 1.831615
   2    1     692.452     -25.625     -12.145
   3    4     366.007     -44.720     -12.999
 ADD  H2O(L)         
   3    2     368.086     -44.497     -13.000
   3    3     365.143     -44.843     -13.048
   3    2     365.152     -44.842     -13.048





              THEORETICAL ROCKET PERFORMANCE ASSUMING EQUILIBRIUM

           COMPOSITION DURING EXPANSION FROM INFINITE AREA COMBUSTOR

 Pin =   413.4 PSIA
 CASE =                

             REACTANT                    WT FRACTION      ENERGY      TEMP
                                          (SEE NOTE)     KJ/KG-MOL      K  
 FUEL        H2O(L)                       1.0000000   -285841.390    298.000
 OXIDANT     H2O2(L)                      1.0000000   -187793.400    298.000

 O/F=    4.10000  %FUEL= 19.607843  R,EQ.RATIO= 0.593581  PHI,EQ.RATIO= 0.000000

                 CHAMBER   THROAT     EXIT
 Pinf/P            1.0000   1.8316   28.344
 P, BAR            28.500   15.560   1.0055
 T, K              793.87   692.45   365.15
 RHO, KG/CU M    9.3184 0 5.8327 0 7.1988-1
 H, KJ/KG        -7549.51 -7722.58 -8259.59
 U, KJ/KG        -7855.36 -7989.35 -8399.26
 G, KJ/KG        -15034.8 -14251.6 -11702.6
 S, KJ/(KG)(K)     9.4288   9.4288   9.4288

 M, (1/n)          21.582   21.582   21.737
 MW, MOL WT        21.582   21.582   21.582
 (dLV/dLP)t      -1.00000 -1.00000 -3.89304
 (dLV/dLT)p        1.0000   1.0000  40.2714
 Cp, KJ/(KG)(K)    1.7325   1.6804 205.4508
 GAMMAs            1.2860   1.2975   1.1447
 SON VEL,M/SEC      627.1    588.3    399.9
 MACH NUMBER        0.000    1.000    2.980

 TRANSPORT PROPERTIES (GASES ONLY)
   CONDUCTIVITY IN UNITS OF MILLIWATTS/(CM)(K)

 VISC,MILLIPOISE  0.34909  0.30935  0.17229

  WITH EQUILIBRIUM REACTIONS

 Cp, KJ/(KG)(K)    1.7325   1.6804   1.5234
 CONDUCTIVITY      0.6872   0.5800   0.2823
 PRANDTL NUMBER    0.8801   0.8962   0.9299

  WITH FROZEN REACTIONS

 Cp, KJ/(KG)(K)    1.7325   1.6804   1.5234
 CONDUCTIVITY      0.6872   0.5800   0.2823
 PRANDTL NUMBER    0.8801   0.8962   0.9299

 PERFORMANCE PARAMETERS

 Ae/At                      1.0000   4.0000
 CSTAR, M/SEC                830.5    830.5
 CF                         0.7084   1.4349
 Ivac, M/SEC                1041.8   1308.9
 Isp, M/SEC                  588.3   1191.7


 MOLE FRACTIONS

 H2O              0.74496  0.74496  0.73783
 *O2              0.25504  0.25504  0.25504
 H2O(L)           0.00000  0.00000  0.00714

  * THERMODYNAMIC PROPERTIES FITTED TO 20000.K

    PRODUCTS WHICH WERE CONSIDERED BUT WHOSE MOLE FRACTIONS
    WERE LESS THAN 5.000000E-06 FOR ALL ASSIGNED CONDITIONS

 *H              HO2             *H2             H2O2            *O             
 *OH             O3              H2O(cr)        

 NOTE. WEIGHT FRACTION OF FUEL IN TOTAL FUELS AND OF OXIDANT IN TOTAL OXIDANTS





           THEORETICAL ROCKET PERFORMANCE ASSUMING FROZEN COMPOSITION

 Pin =   413.4 PSIA
 CASE =                

             REACTANT                    WT FRACTION      ENERGY      TEMP
                                          (SEE NOTE)     KJ/KG-MOL      K  
 FUEL        H2O(L)                       1.0000000   -285841.390    298.000
 OXIDANT     H2O2(L)                      1.0000000   -187793.400    298.000

 O/F=    4.10000  %FUEL= 19.607843  R,EQ.RATIO= 0.593581  PHI,EQ.RATIO= 0.000000

                 CHAMBER   THROAT     EXIT
 Pinf/P            1.0000   1.8316   29.104
 P, BAR            28.500   15.560  0.97924
 T, K              793.87   692.45   353.94
 RHO, KG/CU M    9.3184 0 5.8327 0 7.1814-1
 H, KJ/KG        -7549.51 -7722.58 -8263.04
 U, KJ/KG        -7855.36 -7989.35 -8399.40
 G, KJ/KG        -15034.8 -14251.6 -11600.3
 S, KJ/(KG)(K)     9.4288   9.4288   9.4288

 M, (1/n)          21.582   21.582   21.582
 MW, MOL WT        21.582   21.582   21.582
 Cp, KJ/(KG)(K)    1.7325   1.6804   1.5218
 GAMMAs            1.2860   1.2975   1.3390
 SON VEL,M/SEC      627.1    588.3    427.3
 MACH NUMBER        0.000    1.000    2.796

 TRANSPORT PROPERTIES (GASES ONLY)
   CONDUCTIVITY IN UNITS OF MILLIWATTS/(CM)(K)

 VISC,MILLIPOISE  0.34909  0.30935  0.16725

  WITH FROZEN REACTIONS

 Cp, KJ/(KG)(K)    1.7325   1.6804   1.5218
 CONDUCTIVITY      0.6872   0.5800   0.2742
 PRANDTL NUMBER    0.8801   0.8962   0.9284

 PERFORMANCE PARAMETERS

 Ae/At                      1.0000   4.0000
 CSTAR, M/SEC                830.5    830.5
 CF                         0.7084   1.4383
 Ivac, M/SEC                1041.8   1308.7
 Isp, M/SEC                  588.3   1194.6

 MOLE FRACTIONS

 H2O             0.74496   *O2             0.25504

  * THERMODYNAMIC PROPERTIES FITTED TO 20000.K

    PRODUCTS WHICH WERE CONSIDERED BUT WHOSE MOLE FRACTIONS
    WERE LESS THAN 5.000000E-06 FOR ALL ASSIGNED CONDITIONS

 *H              HO2             *H2             H2O2            *O             
 *OH             O3              H2O(cr)        

 NOTE. WEIGHT FRACTION OF FUEL IN TOTAL FUELS AND OF OXIDANT IN TOTAL OXIDANTS






 POINT ITN      T            H           O 
   1    1     793.871     -22.886     -11.992
 Pinf/Pt = 1.823899
   2    3     693.122     -25.602     -12.140
 Pinf/Pt = 1.831565
   2    2     692.456     -25.623     -12.141
 Pinf/Pt = 1.831615
   2    1     692.452     -25.623     -12.141
   3    4     366.007     -44.717     -12.995
 ADD  H2O(L)         
   3    2     368.324     -44.470     -12.996
   3    3     365.392     -44.814     -13.043
   3    2     365.401     -44.813     -13.043





              THEORETICAL ROCKET PERFORMANCE ASSUMING EQUILIBRIUM

           COMPOSITION DURING EXPANSION FROM INFINITE AREA COMBUSTOR

 Pin =   417.0 PSIA
 CASE =                

             REACTANT                    WT FRACTION      ENERGY      TEMP
                                          (SEE NOTE)     KJ/KG-MOL      K  
 FUEL        H2O(L)                       1.0000000   -285841.390    298.000
 OXIDANT     H2O2(L)                      1.0000000   -187793.400    298.000

 O/F=    4.10000  %FUEL= 19.607843  R,EQ.RATIO= 0.593581  PHI,EQ.RATIO= 0.000000

                 CHAMBER   THROAT     EXIT
 Pinf/P            1.0000   1.8316   28.328
 P, BAR            28.750   15.697   1.0149
 T, K              793.87   692.45   365.40
 RHO, KG/CU M    9.4001 0 5.8838 0 7.2623-1
 H, KJ/KG        -7549.51 -7722.58 -8259.52
 U, KJ/KG        -7855.36 -7989.35 -8399.26
 G, KJ/KG        -15032.1 -14249.3 -11703.6
 S, KJ/(KG)(K)     9.4255   9.4255   9.4255

 M, (1/n)          21.582   21.582   21.740
 MW, MOL WT        21.582   21.582   21.582
 (dLV/dLP)t      -1.00000 -1.00000 -3.89239
 (dLV/dLT)p        1.0000   1.0000  40.2261
 Cp, KJ/(KG)(K)    1.7325   1.6804 204.9921
 GAMMAs            1.2860   1.2975   1.1448
 SON VEL,M/SEC      627.1    588.3    400.0
 MACH NUMBER        0.000    1.000    2.979

 TRANSPORT PROPERTIES (GASES ONLY)
   CONDUCTIVITY IN UNITS OF MILLIWATTS/(CM)(K)

 VISC,MILLIPOISE  0.34909  0.30935  0.17240

  WITH EQUILIBRIUM REACTIONS

 Cp, KJ/(KG)(K)    1.7325   1.6804   1.5235
 CONDUCTIVITY      0.6872   0.5800   0.2825
 PRANDTL NUMBER    0.8801   0.8962   0.9299

  WITH FROZEN REACTIONS

 Cp, KJ/(KG)(K)    1.7325   1.6804   1.5235
 CONDUCTIVITY      0.6872   0.5800   0.2825
 PRANDTL NUMBER    0.8801   0.8962   0.9299

 PERFORMANCE PARAMETERS

 Ae/At                      1.0000   4.0000
 CSTAR, M/SEC                830.5    830.5
 CF                         0.7084   1.4348
 Ivac, M/SEC                1041.8   1308.9
 Isp, M/SEC                  588.3   1191.6


 MOLE FRACTIONS

 H2O              0.74496  0.74496  0.73766
 *O2              0.25504  0.25504  0.25504
 H2O(L)           0.00000  0.00000  0.00730

  * THERMODYNAMIC PROPERTIES FITTED TO 20000.K

    PRODUCTS WHICH WERE CONSIDERED BUT WHOSE MOLE FRACTIONS
    WERE LESS THAN 5.000000E-06 FOR ALL ASSIGNED CONDITIONS

 *H              HO2             *H2             H2O2            *O             
 *OH             O3              H2O(cr)        

 NOTE. WEIGHT FRACTION OF FUEL IN TOTAL FUELS AND OF OXIDANT IN TOTAL OXIDANTS





           THEORETICAL ROCKET PERFORMANCE ASSUMING FROZEN COMPOSITION

 Pin =   417.0 PSIA
 CASE =                

             REACTANT                    WT FRACTION      ENERGY      TEMP
                                          (SEE NOTE)     KJ/KG-MOL      K  
 FUEL        H2O(L)                       1.0000000   -285841.390    298.000
 OXIDANT     H2O2(L)                      1.0000000   -187793.400    298.000

 O/F=    4.10000  %FUEL= 19.607843  R,EQ.RATIO= 0.593581  PHI,EQ.RATIO= 0.000000

                 CHAMBER   THROAT     EXIT
 Pinf/P            1.0000   1.8316   29.104
 P, BAR            28.750   15.697  0.98783
 T, K              793.87   692.45   353.94
 RHO, KG/CU M    9.4001 0 5.8838 0 7.2444-1
 H, KJ/KG        -7549.51 -7722.58 -8263.04
 U, KJ/KG        -7855.36 -7989.35 -8399.40
 G, KJ/KG        -15032.1 -14249.3 -11599.1
 S, KJ/(KG)(K)     9.4255   9.4255   9.4255

 M, (1/n)          21.582   21.582   21.582
 MW, MOL WT        21.582   21.582   21.582
 Cp, KJ/(KG)(K)    1.7325   1.6804   1.5218
 GAMMAs            1.2860   1.2975   1.3390
 SON VEL,M/SEC      627.1    588.3    427.3
 MACH NUMBER        0.000    1.000    2.796

 TRANSPORT PROPERTIES (GASES ONLY)
   CONDUCTIVITY IN UNITS OF MILLIWATTS/(CM)(K)

 VISC,MILLIPOISE  0.34909  0.30935  0.16725

  WITH FROZEN REACTIONS

 Cp, KJ/(KG)(K)    1.7325   1.6804   1.5218
 CONDUCTIVITY      0.6872   0.5800   0.2742
 PRANDTL NUMBER    0.8801   0.8962   0.9284

 PERFORMANCE PARAMETERS

 Ae/At                      1.0000   4.0000
 CSTAR, M/SEC                830.5    830.5
 CF                         0.7084   1.4383
 Ivac, M/SEC                1041.8   1308.7
 Isp, M/SEC                  588.3   1194.6

 MOLE FRACTIONS

 H2O             0.74496   *O2             0.25504

  * THERMODYNAMIC PROPERTIES FITTED TO 20000.K

    PRODUCTS WHICH WERE CONSIDERED BUT WHOSE MOLE FRACTIONS
    WERE LESS THAN 5.000000E-06 FOR ALL ASSIGNED CONDITIONS

 *H              HO2             *H2             H2O2            *O             
 *OH             O3              H2O(cr)        

 NOTE. WEIGHT FRACTION OF FUEL IN TOTAL FUELS AND OF OXIDANT IN TOTAL OXIDANTS






 POINT ITN      T            H           O 
   1    1     793.871     -22.884     -11.988
 Pinf/Pt = 1.823899
   2    3     693.122     -25.600     -12.135
 Pinf/Pt = 1.831565
   2    2     692.456     -25.621     -12.136
 Pinf/Pt = 1.831615
   2    1     692.452     -25.621     -12.136
   3    4     366.007     -44.715     -12.990
 ADD  H2O(L)         
   3    2     368.560     -44.442     -12.992
   3    3     365.639     -44.785     -13.039
   3    2     365.648     -44.784     -13.039





              THEORETICAL ROCKET PERFORMANCE ASSUMING EQUILIBRIUM

           COMPOSITION DURING EXPANSION FROM INFINITE AREA COMBUSTOR

 Pin =   420.6 PSIA
 CASE =                

             REACTANT                    WT FRACTION      ENERGY      TEMP
                                          (SEE NOTE)     KJ/KG-MOL      K  
 FUEL        H2O(L)                       1.0000000   -285841.390    298.000
 OXIDANT     H2O2(L)                      1.0000000   -187793.400    298.000

 O/F=    4.10000  %FUEL= 19.607843  R,EQ.RATIO= 0.593581  PHI,EQ.RATIO= 0.000000

                 CHAMBER   THROAT     EXIT
 Pinf/P            1.0000   1.8316   28.313
 P, BAR            29.000   15.833   1.0243
 T, K              793.87   692.45   365.65
 RHO, KG/CU M    9.4819 0 5.9350 0 7.3258-1
 H, KJ/KG        -7549.51 -7722.58 -8259.45
 U, KJ/KG        -7855.36 -7989.35 -8399.27
 G, KJ/KG        -15029.5 -14247.0 -11704.6
 S, KJ/(KG)(K)     9.4221   9.4221   9.4221

 M, (1/n)          21.582   21.582   21.744
 MW, MOL WT        21.582   21.582   21.582
 (dLV/dLP)t      -1.00000 -1.00000 -3.89175
 (dLV/dLT)p        1.0000   1.0000  40.1811
 Cp, KJ/(KG)(K)    1.7325   1.6804 204.5377
 GAMMAs            1.2860   1.2975   1.1449
 SON VEL,M/SEC      627.1    588.3    400.1
 MACH NUMBER        0.000    1.000    2.978

 TRANSPORT PROPERTIES (GASES ONLY)
   CONDUCTIVITY IN UNITS OF MILLIWATTS/(CM)(K)

 VISC,MILLIPOISE  0.34909  0.30935  0.17252

  WITH EQUILIBRIUM REACTIONS

 Cp, KJ/(KG)(K)    1.7325   1.6804   1.5235
 CONDUCTIVITY      0.6872   0.5800   0.2826
 PRANDTL NUMBER    0.8801   0.8962   0.9299

  WITH FROZEN REACTIONS

 Cp, KJ/(KG)(K)    1.7325   1.6804   1.5235
 CONDUCTIVITY      0.6872   0.5800   0.2826
 PRANDTL NUMBER    0.8801   0.8962   0.9299

 PERFORMANCE PARAMETERS

 Ae/At                      1.0000   4.0000
 CSTAR, M/SEC                830.5    830.5
 CF                         0.7084   1.4347
 Ivac, M/SEC                1041.8   1308.9
 Isp, M/SEC                  588.3   1191.6


 MOLE FRACTIONS

 H2O              0.74496  0.74496  0.73750
 *O2              0.25504  0.25504  0.25504
 H2O(L)           0.00000  0.00000  0.00747

  * THERMODYNAMIC PROPERTIES FITTED TO 20000.K

    PRODUCTS WHICH WERE CONSIDERED BUT WHOSE MOLE FRACTIONS
    WERE LESS THAN 5.000000E-06 FOR ALL ASSIGNED CONDITIONS

 *H              HO2             *H2             H2O2            *O             
 *OH             O3              H2O(cr)        

 NOTE. WEIGHT FRACTION OF FUEL IN TOTAL FUELS AND OF OXIDANT IN TOTAL OXIDANTS





           THEORETICAL ROCKET PERFORMANCE ASSUMING FROZEN COMPOSITION

 Pin =   420.6 PSIA
 CASE =                

             REACTANT                    WT FRACTION      ENERGY      TEMP
                                          (SEE NOTE)     KJ/KG-MOL      K  
 FUEL        H2O(L)                       1.0000000   -285841.390    298.000
 OXIDANT     H2O2(L)                      1.0000000   -187793.400    298.000

 O/F=    4.10000  %FUEL= 19.607843  R,EQ.RATIO= 0.593581  PHI,EQ.RATIO= 0.000000

                 CHAMBER   THROAT     EXIT
 Pinf/P            1.0000   1.8316   29.104
 P, BAR            29.000   15.833  0.99642
 T, K              793.87   692.45   353.94
 RHO, KG/CU M    9.4819 0 5.9350 0 7.3074-1
 H, KJ/KG        -7549.51 -7722.58 -8263.04
 U, KJ/KG        -7855.36 -7989.35 -8399.40
 G, KJ/KG        -15029.5 -14247.0 -11597.9
 S, KJ/(KG)(K)     9.4221   9.4221   9.4221

 M, (1/n)          21.582   21.582   21.582
 MW, MOL WT        21.582   21.582   21.582
 Cp, KJ/(KG)(K)    1.7325   1.6804   1.5218
 GAMMAs            1.2860   1.2975   1.3390
 SON VEL,M/SEC      627.1    588.3    427.3
 MACH NUMBER        0.000    1.000    2.796

 TRANSPORT PROPERTIES (GASES ONLY)
   CONDUCTIVITY IN UNITS OF MILLIWATTS/(CM)(K)

 VISC,MILLIPOISE  0.34909  0.30935  0.16725

  WITH FROZEN REACTIONS

 Cp, KJ/(KG)(K)    1.7325   1.6804   1.5218
 CONDUCTIVITY      0.6872   0.5800   0.2742
 PRANDTL NUMBER    0.8801   0.8962   0.9284

 PERFORMANCE PARAMETERS

 Ae/At                      1.0000   4.0000
 CSTAR, M/SEC                830.5    830.5
 CF                         0.7084   1.4383
 Ivac, M/SEC                1041.8   1308.7
 Isp, M/SEC                  588.3   1194.6

 MOLE FRACTIONS

 H2O             0.74496   *O2             0.25504

  * THERMODYNAMIC PROPERTIES FITTED TO 20000.K

    PRODUCTS WHICH WERE CONSIDERED BUT WHOSE MOLE FRACTIONS
    WERE LESS THAN 5.000000E-06 FOR ALL ASSIGNED CONDITIONS

 *H              HO2             *H2             H2O2            *O             
 *OH             O3              H2O(cr)        

 NOTE. WEIGHT FRACTION OF FUEL IN TOTAL FUELS AND OF OXIDANT IN TOTAL OXIDANTS






 POINT ITN      T            H           O 
   1    1     793.871     -22.882     -11.983
 Pinf/Pt = 1.823899
   2    3     693.122     -25.598     -12.131
 Pinf/Pt = 1.831565
   2    2     692.456     -25.618     -12.132
 Pinf/Pt = 1.831615
   2    1     692.452     -25.619     -12.132
   3    4     366.007     -44.713     -12.986
 ADD  H2O(L)         
   3    2     368.795     -44.415     -12.988
   3    3     365.884     -44.756     -13.035
   3    2     365.894     -44.755     -13.034





              THEORETICAL ROCKET PERFORMANCE ASSUMING EQUILIBRIUM

           COMPOSITION DURING EXPANSION FROM INFINITE AREA COMBUSTOR

 Pin =   424.2 PSIA
 CASE =                

             REACTANT                    WT FRACTION      ENERGY      TEMP
                                          (SEE NOTE)     KJ/KG-MOL      K  
 FUEL        H2O(L)                       1.0000000   -285841.390    298.000
 OXIDANT     H2O2(L)                      1.0000000   -187793.400    298.000

 O/F=    4.10000  %FUEL= 19.607843  R,EQ.RATIO= 0.593581  PHI,EQ.RATIO= 0.000000

                 CHAMBER   THROAT     EXIT
 Pinf/P            1.0000   1.8316   28.297
 P, BAR            29.250   15.970   1.0337
 T, K              793.87   692.45   365.89
 RHO, KG/CU M    9.5636 0 5.9862 0 7.3893-1
 H, KJ/KG        -7549.51 -7722.58 -8259.38
 U, KJ/KG        -7855.36 -7989.35 -8399.27
 G, KJ/KG        -15026.8 -14244.7 -11705.7
 S, KJ/(KG)(K)     9.4188   9.4188   9.4188

 M, (1/n)          21.582   21.582   21.747
 MW, MOL WT        21.582   21.582   21.582
 (dLV/dLP)t      -1.00000 -1.00000 -3.89112
 (dLV/dLT)p        1.0000   1.0000  40.1365
 Cp, KJ/(KG)(K)    1.7325   1.6804 204.0875
 GAMMAs            1.2860   1.2975   1.1451
 SON VEL,M/SEC      627.1    588.3    400.2
 MACH NUMBER        0.000    1.000    2.977

 TRANSPORT PROPERTIES (GASES ONLY)
   CONDUCTIVITY IN UNITS OF MILLIWATTS/(CM)(K)

 VISC,MILLIPOISE  0.34909  0.30935  0.17263

  WITH EQUILIBRIUM REACTIONS

 Cp, KJ/(KG)(K)    1.7325   1.6804   1.5235
 CONDUCTIVITY      0.6872   0.5800   0.2828
 PRANDTL NUMBER    0.8801   0.8962   0.9299

  WITH FROZEN REACTIONS

 Cp, KJ/(KG)(K)    1.7325   1.6804   1.5235
 CONDUCTIVITY      0.6872   0.5800   0.2828
 PRANDTL NUMBER    0.8801   0.8962   0.9299

 PERFORMANCE PARAMETERS

 Ae/At                      1.0000   4.0000
 CSTAR, M/SEC                830.5    830.5
 CF                         0.7084   1.4347
 Ivac, M/SEC                1041.8   1308.9
 Isp, M/SEC                  588.3   1191.5


 MOLE FRACTIONS

 H2O              0.74496  0.74496  0.73734
 *O2              0.25504  0.25504  0.25504
 H2O(L)           0.00000  0.00000  0.00763

  * THERMODYNAMIC PROPERTIES FITTED TO 20000.K

    PRODUCTS WHICH WERE CONSIDERED BUT WHOSE MOLE FRACTIONS
    WERE LESS THAN 5.000000E-06 FOR ALL ASSIGNED CONDITIONS

 *H              HO2             *H2             H2O2            *O             
 *OH             O3              H2O(cr)        

 NOTE. WEIGHT FRACTION OF FUEL IN TOTAL FUELS AND OF OXIDANT IN TOTAL OXIDANTS





           THEORETICAL ROCKET PERFORMANCE ASSUMING FROZEN COMPOSITION

 Pin =   424.2 PSIA
 CASE =                

             REACTANT                    WT FRACTION      ENERGY      TEMP
                                          (SEE NOTE)     KJ/KG-MOL      K  
 FUEL        H2O(L)                       1.0000000   -285841.390    298.000
 OXIDANT     H2O2(L)                      1.0000000   -187793.400    298.000

 O/F=    4.10000  %FUEL= 19.607843  R,EQ.RATIO= 0.593581  PHI,EQ.RATIO= 0.000000

                 CHAMBER   THROAT     EXIT
 Pinf/P            1.0000   1.8316   29.104
 P, BAR            29.250   15.970   1.0050
 T, K              793.87   692.45   353.94
 RHO, KG/CU M    9.5636 0 5.9862 0 7.3704-1
 H, KJ/KG        -7549.51 -7722.58 -8263.04
 U, KJ/KG        -7855.36 -7989.35 -8399.40
 G, KJ/KG        -15026.8 -14244.7 -11596.7
 S, KJ/(KG)(K)     9.4188   9.4188   9.4188

 M, (1/n)          21.582   21.582   21.582
 MW, MOL WT        21.582   21.582   21.582
 Cp, KJ/(KG)(K)    1.7325   1.6804   1.5218
 GAMMAs            1.2860   1.2975   1.3390
 SON VEL,M/SEC      627.1    588.3    427.3
 MACH NUMBER        0.000    1.000    2.796

 TRANSPORT PROPERTIES (GASES ONLY)
   CONDUCTIVITY IN UNITS OF MILLIWATTS/(CM)(K)

 VISC,MILLIPOISE  0.34909  0.30935  0.16725

  WITH FROZEN REACTIONS

 Cp, KJ/(KG)(K)    1.7325   1.6804   1.5218
 CONDUCTIVITY      0.6872   0.5800   0.2742
 PRANDTL NUMBER    0.8801   0.8962   0.9284

 PERFORMANCE PARAMETERS

 Ae/At                      1.0000   4.0000
 CSTAR, M/SEC                830.5    830.5
 CF                         0.7084   1.4383
 Ivac, M/SEC                1041.8   1308.7
 Isp, M/SEC                  588.3   1194.6

 MOLE FRACTIONS

 H2O             0.74496   *O2             0.25504

  * THERMODYNAMIC PROPERTIES FITTED TO 20000.K

    PRODUCTS WHICH WERE CONSIDERED BUT WHOSE MOLE FRACTIONS
    WERE LESS THAN 5.000000E-06 FOR ALL ASSIGNED CONDITIONS

 *H              HO2             *H2             H2O2            *O             
 *OH             O3              H2O(cr)        

 NOTE. WEIGHT FRACTION OF FUEL IN TOTAL FUELS AND OF OXIDANT IN TOTAL OXIDANTS






 POINT ITN      T            H           O 
   1    1     793.871     -22.880     -11.979
 Pinf/Pt = 1.823899
   2    3     693.122     -25.596     -12.127
 Pinf/Pt = 1.831565
   2    2     692.456     -25.616     -12.128
 Pinf/Pt = 1.831615
   2    1     692.452     -25.616     -12.128
   3    4     366.007     -44.711     -12.982
 ADD  H2O(L)         
   3    2     369.028     -44.389     -12.983
   3    3     366.128     -44.727     -13.030
   3    2     366.137     -44.726     -13.030





              THEORETICAL ROCKET PERFORMANCE ASSUMING EQUILIBRIUM

           COMPOSITION DURING EXPANSION FROM INFINITE AREA COMBUSTOR

 Pin =   427.9 PSIA
 CASE =                

             REACTANT                    WT FRACTION      ENERGY      TEMP
                                          (SEE NOTE)     KJ/KG-MOL      K  
 FUEL        H2O(L)                       1.0000000   -285841.390    298.000
 OXIDANT     H2O2(L)                      1.0000000   -187793.400    298.000

 O/F=    4.10000  %FUEL= 19.607843  R,EQ.RATIO= 0.593581  PHI,EQ.RATIO= 0.000000

                 CHAMBER   THROAT     EXIT
 Pinf/P            1.0000   1.8316   28.281
 P, BAR            29.500   16.106   1.0431
 T, K              793.87   692.45   366.14
 RHO, KG/CU M    9.6454 0 6.0373 0 7.4528-1
 H, KJ/KG        -7549.51 -7722.58 -8259.31
 U, KJ/KG        -7855.36 -7989.35 -8399.27
 G, KJ/KG        -15024.2 -14242.4 -11706.7
 S, KJ/(KG)(K)     9.4156   9.4156   9.4156

 M, (1/n)          21.582   21.582   21.751
 MW, MOL WT        21.582   21.582   21.582
 (dLV/dLP)t      -1.00000 -1.00000 -3.89049
 (dLV/dLT)p        1.0000   1.0000  40.0922
 Cp, KJ/(KG)(K)    1.7325   1.6804 203.6415
 GAMMAs            1.2860   1.2975   1.1452
 SON VEL,M/SEC      627.1    588.3    400.3
 MACH NUMBER        0.000    1.000    2.976

 TRANSPORT PROPERTIES (GASES ONLY)
   CONDUCTIVITY IN UNITS OF MILLIWATTS/(CM)(K)

 VISC,MILLIPOISE  0.34909  0.30935  0.17274

  WITH EQUILIBRIUM REACTIONS

 Cp, KJ/(KG)(K)    1.7325   1.6804   1.5236
 CONDUCTIVITY      0.6872   0.5800   0.2830
 PRANDTL NUMBER    0.8801   0.8962   0.9300

  WITH FROZEN REACTIONS

 Cp, KJ/(KG)(K)    1.7325   1.6804   1.5236
 CONDUCTIVITY      0.6872   0.5800   0.2830
 PRANDTL NUMBER    0.8801   0.8962   0.9300

 PERFORMANCE PARAMETERS

 Ae/At                      1.0000   4.0000
 CSTAR, M/SEC                830.5    830.5
 CF                         0.7084   1.4346
 Ivac, M/SEC                1041.8   1308.9
 Isp, M/SEC                  588.3   1191.5


 MOLE FRACTIONS

 H2O              0.74496  0.74496  0.73718
 *O2              0.25504  0.25504  0.25504
 H2O(L)           0.00000  0.00000  0.00779

  * THERMODYNAMIC PROPERTIES FITTED TO 20000.K

    PRODUCTS WHICH WERE CONSIDERED BUT WHOSE MOLE FRACTIONS
    WERE LESS THAN 5.000000E-06 FOR ALL ASSIGNED CONDITIONS

 *H              HO2             *H2             H2O2            *O             
 *OH             O3              H2O(cr)        

 NOTE. WEIGHT FRACTION OF FUEL IN TOTAL FUELS AND OF OXIDANT IN TOTAL OXIDANTS





           THEORETICAL ROCKET PERFORMANCE ASSUMING FROZEN COMPOSITION

 Pin =   427.9 PSIA
 CASE =                

             REACTANT                    WT FRACTION      ENERGY      TEMP
                                          (SEE NOTE)     KJ/KG-MOL      K  
 FUEL        H2O(L)                       1.0000000   -285841.390    298.000
 OXIDANT     H2O2(L)                      1.0000000   -187793.400    298.000

 O/F=    4.10000  %FUEL= 19.607843  R,EQ.RATIO= 0.593581  PHI,EQ.RATIO= 0.000000

                 CHAMBER   THROAT     EXIT
 Pinf/P            1.0000   1.8316   29.104
 P, BAR            29.500   16.106   1.0136
 T, K              793.87   692.45   353.94
 RHO, KG/CU M    9.6454 0 6.0373 0 7.4333-1
 H, KJ/KG        -7549.51 -7722.58 -8263.04
 U, KJ/KG        -7855.36 -7989.35 -8399.40
 G, KJ/KG        -15024.2 -14242.4 -11595.6
[...]
                                          (SEE NOTE)     KJ/KG-MOL      K  
 FUEL        H2O(L)                       1.0000000   -285841.390    298.000
 OXIDANT     H2O2(L)                      1.0000000   -187793.400    298.000

 O/F=   99.00000  %FUEL=  1.000000  R,EQ.RATIO= 0.504723  PHI,EQ.RATIO= 0.000000

                 CHAMBER   THROAT     EXIT
 Pinf/P            1.0000   1.8089   27.288
 P, BAR            29.000   16.032   1.0627
 T, K             1249.77  1108.06   606.21
 RHO, KG/CU M    6.3122 0 3.9358 0 4.7689-1
 H, KJ/KG        -5624.41 -5881.06 -6716.98
 U, KJ/KG        -6083.83 -6288.39 -6939.83
 G, KJ/KG        -17923.4 -16785.5 -12682.7
 S, KJ/(KG)(K)     9.8410   9.8410   9.8410

 M, (1/n)          22.618   22.618   22.618
 MW, MOL WT        22.618   22.618   22.618
 (dLV/dLP)t      -1.00000 -1.00000 -1.00000
 (dLV/dLT)p        1.0000   1.0000   1.0000
 Cp, KJ/(KG)(K)    1.8412   1.7806   1.5473
 GAMMAs            1.2495   1.2602   1.3116
 SON VEL,M/SEC      757.7    716.5    540.6
 MACH NUMBER        0.000    1.000    2.734

 TRANSPORT PROPERTIES (GASES ONLY)
   CONDUCTIVITY IN UNITS OF MILLIWATTS/(CM)(K)

 VISC,MILLIPOISE  0.51914  0.47296  0.28765

  WITH EQUILIBRIUM REACTIONS

 Cp, KJ/(KG)(K)    1.8412   1.7806   1.5473
 CONDUCTIVITY      1.1759   1.0170   0.4977
 PRANDTL NUMBER    0.8129   0.8281   0.8943

  WITH FROZEN REACTIONS

 Cp, KJ/(KG)(K)    1.8404   1.7805   1.5473
 CONDUCTIVITY      1.1753   1.0169   0.4977
 PRANDTL NUMBER    0.8129   0.8281   0.8943

 PERFORMANCE PARAMETERS

 Ae/At                     1.00000   4.0000
 CSTAR, M/SEC               1028.4   1028.4
 CF                         0.6966   1.4373
 Ivac, M/SEC                1285.0   1629.0
 Isp, M/SEC                  716.5   1478.2


 MOLE FRACTIONS

 H2O              0.67085  0.67085  0.67085
 *OH              0.00001  0.00000  0.00000
 *O2              0.32915  0.32915  0.32915

  * THERMODYNAMIC PROPERTIES FITTED TO 20000.K

    PRODUCTS WHICH WERE CONSIDERED BUT WHOSE MOLE FRACTIONS
    WERE LESS THAN 5.000000E-06 FOR ALL ASSIGNED CONDITIONS

 *H              HO2             *H2             H2O2            *O             
 O3              H2O(cr)         H2O(L)         

 NOTE. WEIGHT FRACTION OF FUEL IN TOTAL FUELS AND OF OXIDANT IN TOTAL OXIDANTS





           THEORETICAL ROCKET PERFORMANCE ASSUMING FROZEN COMPOSITION

 Pin =   420.6 PSIA
 CASE =                

             REACTANT                    WT FRACTION      ENERGY      TEMP
                                          (SEE NOTE)     KJ/KG-MOL      K  
 FUEL        H2O(L)                       1.0000000   -285841.390    298.000
 OXIDANT     H2O2(L)                      1.0000000   -187793.400    298.000

 O/F=   99.00000  %FUEL=  1.000000  R,EQ.RATIO= 0.504723  PHI,EQ.RATIO= 0.000000

                 CHAMBER   THROAT     EXIT
 Pinf/P            1.0000   1.8089   27.288
 P, BAR            29.000   16.032   1.0627
 T, K             1249.77  1108.03   606.19
 RHO, KG/CU M    6.3122 0 3.9359 0 4.7690-1
 H, KJ/KG        -5624.41 -5881.06 -6716.96
 U, KJ/KG        -6083.83 -6288.38 -6939.80
 G, KJ/KG        -17923.4 -16785.2 -12682.5
 S, KJ/(KG)(K)     9.8410   9.8410   9.8410

 M, (1/n)          22.618   22.618   22.618
 MW, MOL WT        22.618   22.618   22.618
 Cp, KJ/(KG)(K)    1.8404   1.7805   1.5473
 GAMMAs            1.2496   1.2602   1.3116
 SON VEL,M/SEC      757.7    716.5    540.6
 MACH NUMBER        0.000    1.000    2.734

 TRANSPORT PROPERTIES (GASES ONLY)
   CONDUCTIVITY IN UNITS OF MILLIWATTS/(CM)(K)

 VISC,MILLIPOISE  0.51914  0.47295  0.28764

  WITH FROZEN REACTIONS

 Cp, KJ/(KG)(K)    1.8404   1.7805   1.5473
 CONDUCTIVITY      1.1753   1.0168   0.4977
 PRANDTL NUMBER    0.8129   0.8281   0.8943

 PERFORMANCE PARAMETERS

 Ae/At                     1.00000   4.0000
 CSTAR, M/SEC               1028.4   1028.4
 CF                         0.6966   1.4373
 Ivac, M/SEC                1285.0   1629.0
 Isp, M/SEC                  716.5   1478.2

 MOLE FRACTIONS

 H2O             0.67085   *OH             0.00001   *O2             0.32915

  * THERMODYNAMIC PROPERTIES FITTED TO 20000.K

    PRODUCTS WHICH WERE CONSIDERED BUT WHOSE MOLE FRACTIONS
    WERE LESS THAN 5.000000E-06 FOR ALL ASSIGNED CONDITIONS

 *H              HO2             *H2             H2O2            *O             
 O3              H2O(cr)         H2O(L)         

 NOTE. WEIGHT FRACTION OF FUEL IN TOTAL FUELS AND OF OXIDANT IN TOTAL OXIDANTS






 POINT ITN      T            H           O 
   1    1    1249.769     -16.715     -12.472
 Pinf/Pt = 1.801719
   2    3    1108.976     -18.223     -12.590
 Pinf/Pt = 1.808868
   2    2    1108.070     -18.234     -12.591
 Pinf/Pt = 1.808916
   2    1    1108.064     -18.234     -12.591
   3    4     621.558     -28.709     -13.193
   3    2     606.169     -29.315     -13.222
   3    1     606.213     -29.313     -13.222





              THEORETICAL ROCKET PERFORMANCE ASSUMING EQUILIBRIUM

           COMPOSITION DURING EXPANSION FROM INFINITE AREA COMBUSTOR

 Pin =   424.2 PSIA
 CASE =                

             REACTANT                    WT FRACTION      ENERGY      TEMP
                                          (SEE NOTE)     KJ/KG-MOL      K  
 FUEL        H2O(L)                       1.0000000   -285841.390    298.000
 OXIDANT     H2O2(L)                      1.0000000   -187793.400    298.000

 O/F=   99.00000  %FUEL=  1.000000  R,EQ.RATIO= 0.504723  PHI,EQ.RATIO= 0.000000

                 CHAMBER   THROAT     EXIT
 Pinf/P            1.0000   1.8089   27.288
 P, BAR            29.250   16.170   1.0719
 T, K             1249.77  1108.06   606.21
 RHO, KG/CU M    6.3667 0 3.9697 0 4.8100-1
 H, KJ/KG        -5624.41 -5881.06 -6716.98
 U, KJ/KG        -6083.83 -6288.39 -6939.83
 G, KJ/KG        -17919.4 -16782.0 -12680.8
 S, KJ/(KG)(K)     9.8378   9.8378   9.8378

 M, (1/n)          22.618   22.618   22.618
 MW, MOL WT        22.618   22.618   22.618
 (dLV/dLP)t      -1.00000 -1.00000 -1.00000
 (dLV/dLT)p        1.0000   1.0000   1.0000
 Cp, KJ/(KG)(K)    1.8412   1.7806   1.5473
 GAMMAs            1.2495   1.2602   1.3116
 SON VEL,M/SEC      757.7    716.5    540.6
 MACH NUMBER        0.000    1.000    2.734

 TRANSPORT PROPERTIES (GASES ONLY)
   CONDUCTIVITY IN UNITS OF MILLIWATTS/(CM)(K)

 VISC,MILLIPOISE  0.51914  0.47296  0.28765

  WITH EQUILIBRIUM REACTIONS

 Cp, KJ/(KG)(K)    1.8412   1.7806   1.5473
 CONDUCTIVITY      1.1759   1.0170   0.4977
 PRANDTL NUMBER    0.8129   0.8281   0.8943

  WITH FROZEN REACTIONS

 Cp, KJ/(KG)(K)    1.8404   1.7805   1.5473
 CONDUCTIVITY      1.1753   1.0169   0.4977
 PRANDTL NUMBER    0.8129   0.8281   0.8943

 PERFORMANCE PARAMETERS

 Ae/At                      1.0000   4.0000
 CSTAR, M/SEC               1028.4   1028.4
 CF                         0.6966   1.4373
 Ivac, M/SEC                1285.0   1629.0
 Isp, M/SEC                  716.5   1478.2


 MOLE FRACTIONS

 H2O              0.67085  0.67085  0.67085
 *OH              0.00001  0.00000  0.00000
 *O2              0.32915  0.32915  0.32915

  * THERMODYNAMIC PROPERTIES FITTED TO 20000.K

    PRODUCTS WHICH WERE CONSIDERED BUT WHOSE MOLE FRACTIONS
    WERE LESS THAN 5.000000E-06 FOR ALL ASSIGNED CONDITIONS

 *H              HO2             *H2             H2O2            *O             
 O3              H2O(cr)         H2O(L)         

 NOTE. WEIGHT FRACTION OF FUEL IN TOTAL FUELS AND OF OXIDANT IN TOTAL OXIDANTS





           THEORETICAL ROCKET PERFORMANCE ASSUMING FROZEN COMPOSITION

 Pin =   424.2 PSIA
 CASE =                

             REACTANT                    WT FRACTION      ENERGY      TEMP
                                          (SEE NOTE)     KJ/KG-MOL      K  
 FUEL        H2O(L)                       1.0000000   -285841.390    298.000
 OXIDANT     H2O2(L)                      1.0000000   -187793.400    298.000

 O/F=   99.00000  %FUEL=  1.000000  R,EQ.RATIO= 0.504723  PHI,EQ.RATIO= 0.000000

                 CHAMBER   THROAT     EXIT
 Pinf/P            1.0000   1.8089   27.288
 P, BAR            29.250   16.170   1.0719
 T, K             1249.77  1108.03   606.19
 RHO, KG/CU M    6.3667 0 3.9698 0 4.8101-1
 H, KJ/KG        -5624.41 -5881.06 -6716.96
 U, KJ/KG        -6083.83 -6288.38 -6939.80
 G, KJ/KG        -17919.4 -16781.7 -12680.6
 S, KJ/(KG)(K)     9.8378   9.8378   9.8378

 M, (1/n)          22.618   22.618   22.618
 MW, MOL WT        22.618   22.618   22.618
 Cp, KJ/(KG)(K)    1.8404   1.7805   1.5473
 GAMMAs            1.2496   1.2602   1.3116
 SON VEL,M/SEC      757.7    716.5    540.6
 MACH NUMBER        0.000    1.000    2.734

 TRANSPORT PROPERTIES (GASES ONLY)
   CONDUCTIVITY IN UNITS OF MILLIWATTS/(CM)(K)

 VISC,MILLIPOISE  0.51914  0.47295  0.28764

  WITH FROZEN REACTIONS

 Cp, KJ/(KG)(K)    1.8404   1.7805   1.5473
 CONDUCTIVITY      1.1753   1.0168   0.4977
 PRANDTL NUMBER    0.8129   0.8281   0.8943

 PERFORMANCE PARAMETERS

 Ae/At                      1.0000   4.0000
 CSTAR, M/SEC               1028.4   1028.4
 CF                         0.6966   1.4373
 Ivac, M/SEC                1285.0   1629.0
 Isp, M/SEC                  716.5   1478.2

 MOLE FRACTIONS

 H2O             0.67085   *OH             0.00001   *O2             0.32915

  * THERMODYNAMIC PROPERTIES FITTED TO 20000.K

    PRODUCTS WHICH WERE CONSIDERED BUT WHOSE MOLE FRACTIONS
    WERE LESS THAN 5.000000E-06 FOR ALL ASSIGNED CONDITIONS

 *H              HO2             *H2             H2O2            *O             
 O3              H2O(cr)         H2O(L)         

 NOTE. WEIGHT FRACTION OF FUEL IN TOTAL FUELS AND OF OXIDANT IN TOTAL OXIDANTS






 POINT ITN      T            H           O 
   1    1    1249.769     -16.713     -12.468
 Pinf/Pt = 1.801719
   2    3    1108.976     -18.221     -12.586
 Pinf/Pt = 1.808868
   2    2    1108.070     -18.232     -12.586
 Pinf/Pt = 1.808916
   2    1    1108.064     -18.232     -12.587
   3    4     621.558     -28.707     -13.189
   3    2     606.169     -29.313     -13.218
   3    1     606.213     -29.311     -13.218





              THEORETICAL ROCKET PERFORMANCE ASSUMING EQUILIBRIUM

           COMPOSITION DURING EXPANSION FROM INFINITE AREA COMBUSTOR

 Pin =   427.9 PSIA
 CASE =                

             REACTANT                    WT FRACTION      ENERGY      TEMP
                                          (SEE NOTE)     KJ/KG-MOL      K  
 FUEL        H2O(L)                       1.0000000   -285841.390    298.000
 OXIDANT     H2O2(L)                      1.0000000   -187793.400    298.000

 O/F=   99.00000  %FUEL=  1.000000  R,EQ.RATIO= 0.504723  PHI,EQ.RATIO= 0.000000

                 CHAMBER   THROAT     EXIT
 Pinf/P            1.0000   1.8089   27.288
 P, BAR            29.500   16.308   1.0811
 T, K             1249.77  1108.06   606.21
 RHO, KG/CU M    6.4211 0 4.0036 0 4.8511-1
 H, KJ/KG        -5624.41 -5881.06 -6716.98
 U, KJ/KG        -6083.83 -6288.39 -6939.83
 G, KJ/KG        -17915.5 -16778.5 -12678.9
 S, KJ/(KG)(K)     9.8347   9.8347   9.8347

 M, (1/n)          22.618   22.618   22.618
 MW, MOL WT        22.618   22.618   22.618
 (dLV/dLP)t      -1.00000 -1.00000 -1.00000
 (dLV/dLT)p        1.0000   1.0000   1.0000
 Cp, KJ/(KG)(K)    1.8412   1.7806   1.5473
 GAMMAs            1.2495   1.2602   1.3116
 SON VEL,M/SEC      757.7    716.5    540.6
 MACH NUMBER        0.000    1.000    2.734

 TRANSPORT PROPERTIES (GASES ONLY)
   CONDUCTIVITY IN UNITS OF MILLIWATTS/(CM)(K)

 VISC,MILLIPOISE  0.51914  0.47296  0.28765

  WITH EQUILIBRIUM REACTIONS

 Cp, KJ/(KG)(K)    1.8412   1.7806   1.5473
 CONDUCTIVITY      1.1759   1.0170   0.4977
 PRANDTL NUMBER    0.8129   0.8281   0.8943

  WITH FROZEN REACTIONS

 Cp, KJ/(KG)(K)    1.8404   1.7805   1.5473
 CONDUCTIVITY      1.1753   1.0169   0.4977
 PRANDTL NUMBER    0.8129   0.8281   0.8943

 PERFORMANCE PARAMETERS

 Ae/At                      1.0000   4.0000
 CSTAR, M/SEC               1028.4   1028.4
 CF                         0.6966   1.4373
 Ivac, M/SEC                1285.0   1629.0
 Isp, M/SEC                  716.5   1478.2


 MOLE FRACTIONS

 H2O              0.67085  0.67085  0.67085
 *OH              0.00001  0.00000  0.00000
 *O2              0.32915  0.32915  0.32915

  * THERMODYNAMIC PROPERTIES FITTED TO 20000.K

    PRODUCTS WHICH WERE CONSIDERED BUT WHOSE MOLE FRACTIONS
    WERE LESS THAN 5.000000E-06 FOR ALL ASSIGNED CONDITIONS

 *H              HO2             *H2             H2O2            *O             
 O3              H2O(cr)         H2O(L)         

 NOTE. WEIGHT FRACTION OF FUEL IN TOTAL FUELS AND OF OXIDANT IN TOTAL OXIDANTS





           THEORETICAL ROCKET PERFORMANCE ASSUMING FROZEN COMPOSITION

 Pin =   427.9 PSIA
 CASE =                

             REACTANT                    WT FRACTION      ENERGY      TEMP
                                          (SEE NOTE)     KJ/KG-MOL      K  
 FUEL        H2O(L)                       1.0000000   -285841.390    298.000
 OXIDANT     H2O2(L)                      1.0000000   -187793.400    298.000

 O/F=   99.00000  %FUEL=  1.000000  R,EQ.RATIO= 0.504723  PHI,EQ.RATIO= 0.000000

                 CHAMBER   THROAT     EXIT
 Pinf/P            1.0000   1.8089   27.288
 P, BAR            29.500   16.308   1.0811
 T, K             1249.77  1108.03   606.19
 RHO, KG/CU M    6.4211 0 4.0037 0 4.8513-1
 H, KJ/KG        -5624.41 -5881.06 -6716.96
 U, KJ/KG        -6083.83 -6288.38 -6939.80
 G, KJ/KG        -17915.5 -16778.2 -12678.7
 S, KJ/(KG)(K)     9.8347   9.8347   9.8347

 M, (1/n)          22.618   22.618   22.618
 MW, MOL WT        22.618   22.618   22.618
 Cp, KJ/(KG)(K)    1.8404   1.7805   1.5473
 GAMMAs            1.2496   1.2602   1.3116
 SON VEL,M/SEC      757.7    716.5    540.6
 MACH NUMBER        0.000    1.000    2.734

 TRANSPORT PROPERTIES (GASES ONLY)
   CONDUCTIVITY IN UNITS OF MILLIWATTS/(CM)(K)

 VISC,MILLIPOISE  0.51914  0.47295  0.28764

  WITH FROZEN REACTIONS

 Cp, KJ/(KG)(K)    1.8404   1.7805   1.5473
 CONDUCTIVITY      1.1753   1.0168   0.4977
 PRANDTL NUMBER    0.8129   0.8281   0.8943

 PERFORMANCE PARAMETERS

 Ae/At                      1.0000   4.0000
 CSTAR, M/SEC               1028.4   1028.4
 CF                         0.6966   1.4373
 Ivac, M/SEC                1285.0   1629.0
 Isp, M/SEC                  716.5   1478.2

 MOLE FRACTIONS

 H2O             0.67085   *OH             0.00001   *O2             0.32915

  * THERMODYNAMIC PROPERTIES FITTED TO 20000.K

    PRODUCTS WHICH WERE CONSIDERED BUT WHOSE MOLE FRACTIONS
    WERE LESS THAN 5.000000E-06 FOR ALL ASSIGNED CONDITIONS

 *H              HO2             *H2             H2O2            *O             
 O3              H2O(cr)         H2O(L)         

 NOTE. WEIGHT FRACTION OF FUEL IN TOTAL FUELS AND OF OXIDANT IN TOTAL OXIDANTS






 POINT ITN      T            H           O 
   1    1    1249.769     -16.711     -12.464
 Pinf/Pt = 1.801719
   2    3    1108.976     -18.219     -12.581
 Pinf/Pt = 1.808868
   2    2    1108.070     -18.230     -12.582
 Pinf/Pt = 1.808916
   2    1    1108.064     -18.230     -12.582
   3    4     621.558     -28.705     -13.185
   3    2     606.169     -29.311     -13.214
   3    1     606.213     -29.309     -13.214





              THEORETICAL ROCKET PERFORMANCE ASSUMING EQUILIBRIUM

           COMPOSITION DURING EXPANSION FROM INFINITE AREA COMBUSTOR

 Pin =   431.5 PSIA
 CASE =                

             REACTANT                    WT FRACTION      ENERGY      TEMP
                                          (SEE NOTE)     KJ/KG-MOL      K  
 FUEL        H2O(L)                       1.0000000   -285841.390    298.000
 OXIDANT     H2O2(L)                      1.0000000   -187793.400    298.000

 O/F=   99.00000  %FUEL=  1.000000  R,EQ.RATIO= 0.504723  PHI,EQ.RATIO= 0.000000

                 CHAMBER   THROAT     EXIT
 Pinf/P            1.0000   1.8089   27.288
 P, BAR            29.750   16.446   1.0902
 T, K             1249.77  1108.06   606.21
 RHO, KG/CU M    6.4755 0 4.0376 0 4.8922-1
 H, KJ/KG        -5624.41 -5881.06 -6716.98
 U, KJ/KG        -6083.83 -6288.39 -6939.83
 G, KJ/KG        -17911.6 -16775.1 -12677.0
 S, KJ/(KG)(K)     9.8316   9.8316   9.8316

 M, (1/n)          22.618   22.618   22.618
 MW, MOL WT        22.618   22.618   22.618
 (dLV/dLP)t      -1.00000 -1.00000 -1.00000
 (dLV/dLT)p        1.0000   1.0000   1.0000
 Cp, KJ/(KG)(K)    1.8412   1.7806   1.5473
 GAMMAs            1.2495   1.2602   1.3116
 SON VEL,M/SEC      757.7    716.5    540.6
 MACH NUMBER        0.000    1.000    2.734

 TRANSPORT PROPERTIES (GASES ONLY)
   CONDUCTIVITY IN UNITS OF MILLIWATTS/(CM)(K)

 VISC,MILLIPOISE  0.51914  0.47296  0.28765

  WITH EQUILIBRIUM REACTIONS

 Cp, KJ/(KG)(K)    1.8412   1.7806   1.5473
 CONDUCTIVITY      1.1759   1.0170   0.4977
 PRANDTL NUMBER    0.8129   0.8281   0.8943

  WITH FROZEN REACTIONS

 Cp, KJ/(KG)(K)    1.8404   1.7805   1.5473
 CONDUCTIVITY      1.1753   1.0169   0.4977
 PRANDTL NUMBER    0.8129   0.8281   0.8943

 PERFORMANCE PARAMETERS

 Ae/At                      1.0000   4.0000
 CSTAR, M/SEC               1028.4   1028.4
 CF                         0.6966   1.4373
 Ivac, M/SEC                1285.0   1629.0
 Isp, M/SEC                  716.5   1478.2


 MOLE FRACTIONS

 H2O              0.67085  0.67085  0.67085
 *OH              0.00001  0.00000  0.00000
 *O2              0.32915  0.32915  0.32915

  * THERMODYNAMIC PROPERTIES FITTED TO 20000.K

    PRODUCTS WHICH WERE CONSIDERED BUT WHOSE MOLE FRACTIONS
    WERE LESS THAN 5.000000E-06 FOR ALL ASSIGNED CONDITIONS

 *H              HO2             *H2             H2O2            *O             
 O3              H2O(cr)         H2O(L)         

 NOTE. WEIGHT FRACTION OF FUEL IN TOTAL FUELS AND OF OXIDANT IN TOTAL OXIDANTS





           THEORETICAL ROCKET PERFORMANCE ASSUMING FROZEN COMPOSITION

 Pin =   431.5 PSIA
 CASE =                

             REACTANT                    WT FRACTION      ENERGY      TEMP
                                          (SEE NOTE)     KJ/KG-MOL      K  
 FUEL        H2O(L)                       1.0000000   -285841.390    298.000
 OXIDANT     H2O2(L)                      1.0000000   -187793.400    298.000

 O/F=   99.00000  %FUEL=  1.000000  R,EQ.RATIO= 0.504723  PHI,EQ.RATIO= 0.000000

                 CHAMBER   THROAT     EXIT
 Pinf/P            1.0000   1.8089   27.288
 P, BAR            29.750   16.446   1.0902
 T, K             1249.77  1108.03   606.19
 RHO, KG/CU M    6.4755 0 4.0376 0 4.8924-1
 H, KJ/KG        -5624.41 -5881.06 -6716.96
 U, KJ/KG        -6083.83 -6288.38 -6939.80
 G, KJ/KG        -17911.6 -16774.8 -12676.8
 S, KJ/(KG)(K)     9.8316   9.8316   9.8316

 M, (1/n)          22.618   22.618   22.618
 MW, MOL WT        22.618   22.618   22.618
 Cp, KJ/(KG)(K)    1.8404   1.7805   1.5473
 GAMMAs            1.2496   1.2602   1.3116
 SON VEL,M/SEC      757.7    716.5    540.6
 MACH NUMBER        0.000    1.000    2.734

 TRANSPORT PROPERTIES (GASES ONLY)
   CONDUCTIVITY IN UNITS OF MILLIWATTS/(CM)(K)

 VISC,MILLIPOISE  0.51914  0.47295  0.28764

  WITH FROZEN REACTIONS

 Cp, KJ/(KG)(K)    1.8404   1.7805   1.5473
 CONDUCTIVITY      1.1753   1.0168   0.4977
 PRANDTL NUMBER    0.8129   0.8281   0.8943

 PERFORMANCE PARAMETERS

 Ae/At                      1.0000   4.0000
 CSTAR, M/SEC               1028.4   1028.4
 CF                         0.6966   1.4373
 Ivac, M/SEC                1285.0   1629.0
 Isp, M/SEC                  716.5   1478.2

 MOLE FRACTIONS

 H2O             0.67085   *OH             0.00001   *O2             0.32915

  * THERMODYNAMIC PROPERTIES FITTED TO 20000.K

    PRODUCTS WHICH WERE CONSIDERED BUT WHOSE MOLE FRACTIONS
    WERE LESS THAN 5.000000E-06 FOR ALL ASSIGNED CONDITIONS

 *H              HO2             *H2             H2O2            *O             
 O3              H2O(cr)         H2O(L)         

 NOTE. WEIGHT FRACTION OF FUEL IN TOTAL FUELS AND OF OXIDANT IN TOTAL OXIDANTS



