
 *******************************************************************************

         NASA-GLENN CHEMICAL EQUILIBRIUM PROGRAM CEA2, MAY 21, 2004
                   BY  BONNIE MCBRIDE AND SANFORD GORDON
      REFS: NASA RP-1311, PART I, 1994 AND NASA RP-1311, PART II, 1996

 *******************************************************************************



 problem    o/f=4,5,6,7,8,9,10,20,30,50,70,90,99,
     rocket  equilibrium  frozen  nfz=1  tcest,k=3800
   p,bar=25,26,27,28,29,30,31,32,
   sup,ae/at=4,
 react
   fuel=H2O(L) wt=100  t,k=298
   oxid=H2O2(L) wt=100  t,k=298
 output  transport
     plot o/f %f p t rho h g m mw cp gam pip mach aeat cf ivac isp
 end

 OPTIONS: TP=F  HP=F  SP=F  TV=F  UV=F  SV=F  DETN=F  SHOCK=F  REFL=F  INCD=F
 RKT=T  FROZ=T  EQL=T  IONS=F  SIUNIT=T  DEBUGF=F  SHKDBG=F  DETDBG=F  TRNSPT=T

 TRACE= 0.00E+00  S/R= 0.000000E+00  H/R= 0.000000E+00  U/R= 0.000000E+00

 Pc,BAR =    25.000000    26.000000    27.000000    28.000000    29.000000    30.000000    31.000000

 Pc,BAR =    32.000000

 Pc/P =

 SUBSONIC AREA RATIOS =

 SUPERSONIC AREA RATIOS =     4.0000

 NFZ=  1  Mdot/Ac= 0.000000E+00  Ac/At= 0.000000E+00

    REACTANT          WT.FRAC   (ENERGY/R),K   TEMP,K  DENSITY
        EXPLODED FORMULA
 F: H2O(L)           1.000000  -0.343786E+05   298.00  0.0000
          H  2.00000  O  1.00000
 O: H2O2(L)          1.000000  -0.225862E+05   298.00  0.0000
          H  2.00000  O  2.00000

  SPECIES BEING CONSIDERED IN THIS SYSTEM
 (CONDENSED PHASE MAY HAVE NAME LISTED SEVERAL TIMES)
  LAST thermo.inp UPDATE:    9/09/04

  g 6/97  *H               g 4/02  HO2              tpis78  *H2            
  g 8/89  H2O              g 6/99  H2O2             g 5/97  *O             
  g 4/02  *OH              tpis89  *O2              g 8/01  O3             
  g11/99  H2O(cr)          g 8/01  H2O(L)           g 8/01  H2O(L)         

 SPECIES WITH TRANSPORT PROPERTIES

        PURE SPECIES

  H                 H2                H2O               O               
  OH                O2              

     BINARY INTERACTIONS

     H               H2              
     H               O               
     H2              H2O             
     H2              O2              
     H2O             O2              
     O               O2              


 O/F =   4.000000

                       EFFECTIVE FUEL     EFFECTIVE OXIDANT        MIXTURE
 ENTHALPY                  h(2)/R              h(1)/R               h0/R
 (KG-MOL)(K)/KG       -0.19083035E+04     -0.66401406E+03     -0.91287194E+03

 KG-FORM.WT./KG             bi(2)               bi(1)               b0i
  *H                   0.11101687E+00      0.58798142E-01      0.69241888E-01
  *O                   0.55508435E-01      0.58798142E-01      0.58140201E-01

 POINT ITN      T            H           O 
   1   10     784.212     -23.135     -12.050
 Pinf/Pt = 1.824496
   2    3     684.399     -25.894     -12.199
 Pinf/Pt = 1.832146
   2    2     683.741     -25.914     -12.200
 Pinf/Pt = 1.832196
   2    1     683.736     -25.915     -12.200
   3    4     360.926     -45.307     -13.064
 ADD  H2O(L)         
   3    2     364.552     -44.909     -13.065
   3    3     361.779     -45.241     -13.111
   3    2     361.787     -45.240     -13.111





              THEORETICAL ROCKET PERFORMANCE ASSUMING EQUILIBRIUM

           COMPOSITION DURING EXPANSION FROM INFINITE AREA COMBUSTOR

 Pin =   362.6 PSIA
 CASE =                

             REACTANT                    WT FRACTION      ENERGY      TEMP
                                          (SEE NOTE)     KJ/KG-MOL      K  
 FUEL        H2O(L)                       1.0000000   -285841.390    298.000
 OXIDANT     H2O2(L)                      1.0000000   -187793.400    298.000

 O/F=    4.00000  %FUEL= 20.000000  R,EQ.RATIO= 0.595473  PHI,EQ.RATIO= 0.000000

                 CHAMBER   THROAT     EXIT
 Pinf/P            1.0000   1.8322   28.263
 P, BAR            25.000   13.645  0.88454
 T, K              784.21   683.74   361.79
 RHO, KG/CU M    8.2667 0 5.1750 0 6.3920-1
 H, KJ/KG        -7590.08 -7761.26 -8291.33
 U, KJ/KG        -7892.50 -8024.93 -8429.71
 G, KJ/KG        -15013.3 -14233.4 -11715.9
 S, KJ/(KG)(K)     9.4658   9.4658   9.4658

 M, (1/n)          21.561   21.561   21.737
 MW, MOL WT        21.561   21.561   21.561
 (dLV/dLP)t      -1.00000 -1.00000 -3.91199
 (dLV/dLT)p        1.0000   1.0000  41.0324
 Cp, KJ/(KG)(K)    1.7295   1.6778 212.0463
 GAMMAs            1.2870   1.2984   1.1429
 SON VEL,M/SEC      623.9    585.1    397.7
 MACH NUMBER        0.000    1.000    2.978

 TRANSPORT PROPERTIES (GASES ONLY)
   CONDUCTIVITY IN UNITS OF MILLIWATTS/(CM)(K)

 VISC,MILLIPOISE  0.34511  0.30558  0.17065

  WITH EQUILIBRIUM REACTIONS

 Cp, KJ/(KG)(K)    1.7295   1.6778   1.5237
 CONDUCTIVITY      0.6769   0.5710   0.2797
 PRANDTL NUMBER    0.8818   0.8979   0.9296

  WITH FROZEN REACTIONS

 Cp, KJ/(KG)(K)    1.7295   1.6778   1.5237
 CONDUCTIVITY      0.6769   0.5710   0.2797
 PRANDTL NUMBER    0.8818   0.8979   0.9296

 PERFORMANCE PARAMETERS

 Ae/At                     1.00000   4.0000
 CSTAR, M/SEC                825.6    825.6
 CF                         0.7087   1.4344
 Ivac, M/SEC                1035.7   1301.1
 Isp, M/SEC                  585.1   1184.3


 MOLE FRACTIONS

 H2O              0.74645  0.74645  0.73832
 *O2              0.25355  0.25355  0.25355
 H2O(L)           0.00000  0.00000  0.00813

  * THERMODYNAMIC PROPERTIES FITTED TO 20000.K

    PRODUCTS WHICH WERE CONSIDERED BUT WHOSE MOLE FRACTIONS
    WERE LESS THAN 5.000000E-06 FOR ALL ASSIGNED CONDITIONS

 *H              HO2             *H2             H2O2            *O             
 *OH             O3              H2O(cr)        

 NOTE. WEIGHT FRACTION OF FUEL IN TOTAL FUELS AND OF OXIDANT IN TOTAL OXIDANTS





           THEORETICAL ROCKET PERFORMANCE ASSUMING FROZEN COMPOSITION

 Pin =   362.6 PSIA
 CASE =                

             REACTANT                    WT FRACTION      ENERGY      TEMP
                                          (SEE NOTE)     KJ/KG-MOL      K  
 FUEL        H2O(L)                       1.0000000   -285841.390    298.000
 OXIDANT     H2O2(L)                      1.0000000   -187793.400    298.000

 O/F=    4.00000  %FUEL= 20.000000  R,EQ.RATIO= 0.595473  PHI,EQ.RATIO= 0.000000

                 CHAMBER   THROAT     EXIT
 Pinf/P            1.0000   1.8322   29.143
 P, BAR            25.000   13.645  0.85783
 T, K              784.21   683.74   348.98
 RHO, KG/CU M    8.2667 0 5.1750 0 6.3742-1
 H, KJ/KG        -7590.08 -7761.26 -8295.25
 U, KJ/KG        -7892.50 -8024.93 -8429.83
 G, KJ/KG        -15013.3 -14233.4 -11598.7
 S, KJ/(KG)(K)     9.4658   9.4658   9.4658

 M, (1/n)          21.561   21.561   21.561
 MW, MOL WT        21.561   21.561   21.561
 Cp, KJ/(KG)(K)    1.7295   1.6778   1.5219
 GAMMAs            1.2870   1.2984   1.3394
 SON VEL,M/SEC      623.9    585.1    424.6
 MACH NUMBER        0.000    1.000    2.797

 TRANSPORT PROPERTIES (GASES ONLY)
   CONDUCTIVITY IN UNITS OF MILLIWATTS/(CM)(K)

 VISC,MILLIPOISE  0.34511  0.30558  0.16492

  WITH FROZEN REACTIONS

 Cp, KJ/(KG)(K)    1.7295   1.6778   1.5219
 CONDUCTIVITY      0.6769   0.5710   0.2706
 PRANDTL NUMBER    0.8818   0.8979   0.9277

 PERFORMANCE PARAMETERS

 Ae/At                      1.0000   4.0000
 CSTAR, M/SEC                825.6    825.6
 CF                         0.7087   1.4384
 Ivac, M/SEC                1035.7   1300.9
 Isp, M/SEC                  585.1   1187.6

 MOLE FRACTIONS

 H2O             0.74645   *O2             0.25355

  * THERMODYNAMIC PROPERTIES FITTED TO 20000.K

    PRODUCTS WHICH WERE CONSIDERED BUT WHOSE MOLE FRACTIONS
    WERE LESS THAN 5.000000E-06 FOR ALL ASSIGNED CONDITIONS

 *H              HO2             *H2             H2O2            *O             
 *OH             O3              H2O(cr)        

 NOTE. WEIGHT FRACTION OF FUEL IN TOTAL FUELS AND OF OXIDANT IN TOTAL OXIDANTS






 POINT ITN      T            H           O 
   1    1     784.212     -23.125     -12.031
 Pinf/Pt = 1.824496
   2    3     684.399     -25.884     -12.180
 Pinf/Pt = 1.832146
   2    2     683.741     -25.905     -12.181
 Pinf/Pt = 1.832196
   2    1     683.736     -25.905     -12.181
   3    4     360.926     -45.297     -13.044
 ADD  H2O(L)         
   3    2     365.599     -44.786     -13.046
   3    3     362.874     -45.110     -13.091
   3    2     362.882     -45.109     -13.091





              THEORETICAL ROCKET PERFORMANCE ASSUMING EQUILIBRIUM

           COMPOSITION DURING EXPANSION FROM INFINITE AREA COMBUSTOR

 Pin =   377.1 PSIA
 CASE =                

             REACTANT                    WT FRACTION      ENERGY      TEMP
                                          (SEE NOTE)     KJ/KG-MOL      K  
 FUEL        H2O(L)                       1.0000000   -285841.390    298.000
 OXIDANT     H2O2(L)                      1.0000000   -187793.400    298.000

 O/F=    4.00000  %FUEL= 20.000000  R,EQ.RATIO= 0.595473  PHI,EQ.RATIO= 0.000000

                 CHAMBER   THROAT     EXIT
 Pinf/P            1.0000   1.8322   28.193
 P, BAR            26.000   14.191  0.92223
 T, K              784.21   683.74   362.88
 RHO, KG/CU M    8.5974 0 5.3820 0 6.6491-1
 H, KJ/KG        -7590.08 -7761.26 -8291.03
 U, KJ/KG        -7892.50 -8024.93 -8429.73
 G, KJ/KG        -15001.4 -14223.0 -11720.5
 S, KJ/(KG)(K)     9.4507   9.4507   9.4507

 M, (1/n)          21.561   21.561   21.753
 MW, MOL WT        21.561   21.561   21.561
 (dLV/dLP)t      -1.00000 -1.00000 -3.90913
 (dLV/dLT)p        1.0000   1.0000  40.8283
 Cp, KJ/(KG)(K)    1.7295   1.6778 209.9593
 GAMMAs            1.2870   1.2984   1.1434
 SON VEL,M/SEC      623.9    585.1    398.2
 MACH NUMBER        0.000    1.000    2.973

 TRANSPORT PROPERTIES (GASES ONLY)
   CONDUCTIVITY IN UNITS OF MILLIWATTS/(CM)(K)

 VISC,MILLIPOISE  0.34511  0.30558  0.17115

  WITH EQUILIBRIUM REACTIONS

 Cp, KJ/(KG)(K)    1.7295   1.6778   1.5239
 CONDUCTIVITY      0.6769   0.5710   0.2805
 PRANDTL NUMBER    0.8818   0.8979   0.9298

  WITH FROZEN REACTIONS

 Cp, KJ/(KG)(K)    1.7295   1.6778   1.5239
 CONDUCTIVITY      0.6769   0.5710   0.2805
 PRANDTL NUMBER    0.8818   0.8979   0.9298

 PERFORMANCE PARAMETERS

 Ae/At                      1.0000   4.0000
 CSTAR, M/SEC                825.6    825.6
 CF                         0.7087   1.4340
 Ivac, M/SEC                1035.7   1301.2
 Isp, M/SEC                  585.1   1184.0


 MOLE FRACTIONS

 H2O              0.74645  0.74645  0.73760
 *O2              0.25355  0.25355  0.25355
 H2O(L)           0.00000  0.00000  0.00885

  * THERMODYNAMIC PROPERTIES FITTED TO 20000.K

    PRODUCTS WHICH WERE CONSIDERED BUT WHOSE MOLE FRACTIONS
    WERE LESS THAN 5.000000E-06 FOR ALL ASSIGNED CONDITIONS

 *H              HO2             *H2             H2O2            *O             
 *OH             O3              H2O(cr)        

 NOTE. WEIGHT FRACTION OF FUEL IN TOTAL FUELS AND OF OXIDANT IN TOTAL OXIDANTS





           THEORETICAL ROCKET PERFORMANCE ASSUMING FROZEN COMPOSITION

 Pin =   377.1 PSIA
 CASE =                

             REACTANT                    WT FRACTION      ENERGY      TEMP
                                          (SEE NOTE)     KJ/KG-MOL      K  
 FUEL        H2O(L)                       1.0000000   -285841.390    298.000
 OXIDANT     H2O2(L)                      1.0000000   -187793.400    298.000

 O/F=    4.00000  %FUEL= 20.000000  R,EQ.RATIO= 0.595473  PHI,EQ.RATIO= 0.000000

                 CHAMBER   THROAT     EXIT
 Pinf/P            1.0000   1.8322   29.143
 P, BAR            26.000   14.191  0.89214
 T, K              784.21   683.74   348.98
 RHO, KG/CU M    8.5974 0 5.3820 0 6.6292-1
 H, KJ/KG        -7590.08 -7761.26 -8295.25
 U, KJ/KG        -7892.50 -8024.93 -8429.83
 G, KJ/KG        -15001.4 -14223.0 -11593.4
 S, KJ/(KG)(K)     9.4507   9.4507   9.4507

 M, (1/n)          21.561   21.561   21.561
 MW, MOL WT        21.561   21.561   21.561
 Cp, KJ/(KG)(K)    1.7295   1.6778   1.5219
 GAMMAs            1.2870   1.2984   1.3394
 SON VEL,M/SEC      623.9    585.1    424.6
 MACH NUMBER        0.000    1.000    2.797

 TRANSPORT PROPERTIES (GASES ONLY)
   CONDUCTIVITY IN UNITS OF MILLIWATTS/(CM)(K)

 VISC,MILLIPOISE  0.34511  0.30558  0.16492

  WITH FROZEN REACTIONS

 Cp, KJ/(KG)(K)    1.7295   1.6778   1.5219
 CONDUCTIVITY      0.6769   0.5710   0.2706
 PRANDTL NUMBER    0.8818   0.8979   0.9277

 PERFORMANCE PARAMETERS

 Ae/At                      1.0000   4.0000
 CSTAR, M/SEC                825.6    825.6
 CF                         0.7087   1.4384
 Ivac, M/SEC                1035.7   1300.9
 Isp, M/SEC                  585.1   1187.6

 MOLE FRACTIONS

 H2O             0.74645   *O2             0.25355

  * THERMODYNAMIC PROPERTIES FITTED TO 20000.K

    PRODUCTS WHICH WERE CONSIDERED BUT WHOSE MOLE FRACTIONS
    WERE LESS THAN 5.000000E-06 FOR ALL ASSIGNED CONDITIONS

 *H              HO2             *H2             H2O2            *O             
 *OH             O3              H2O(cr)        

 NOTE. WEIGHT FRACTION OF FUEL IN TOTAL FUELS AND OF OXIDANT IN TOTAL OXIDANTS






 POINT ITN      T            H           O 
   1    1     784.212     -23.116     -12.012
 Pinf/Pt = 1.824496
   2    3     684.399     -25.874     -12.161
 Pinf/Pt = 1.832146
   2    2     683.741     -25.895     -12.162
 Pinf/Pt = 1.832196
   2    1     683.736     -25.895     -12.162
   3    4     360.926     -45.287     -13.025
 ADD  H2O(L)         
   3    2     366.612     -44.668     -13.028
   3    3     363.936     -44.984     -13.072
   3    2     363.944     -44.983     -13.072





              THEORETICAL ROCKET PERFORMANCE ASSUMING EQUILIBRIUM

           COMPOSITION DURING EXPANSION FROM INFINITE AREA COMBUSTOR

 Pin =   391.6 PSIA
 CASE =                

             REACTANT                    WT FRACTION      ENERGY      TEMP
                                          (SEE NOTE)     KJ/KG-MOL      K  
 FUEL        H2O(L)                       1.0000000   -285841.390    298.000
 OXIDANT     H2O2(L)                      1.0000000   -187793.400    298.000

 O/F=    4.00000  %FUEL= 20.000000  R,EQ.RATIO= 0.595473  PHI,EQ.RATIO= 0.000000

                 CHAMBER   THROAT     EXIT
 Pinf/P            1.0000   1.8322   28.125
 P, BAR            27.000   14.736  0.96001
 T, K              784.21   683.74   363.94
 RHO, KG/CU M    8.9281 0 5.5890 0 6.9062-1
 H, KJ/KG        -7590.08 -7761.26 -8290.74
 U, KJ/KG        -7892.50 -8024.93 -8429.75
 G, KJ/KG        -14990.0 -14213.1 -11725.0
 S, KJ/(KG)(K)     9.4361   9.4361   9.4361

 M, (1/n)          21.561   21.561   21.769
 MW, MOL WT        21.561   21.561   21.561
 (dLV/dLP)t      -1.00000 -1.00000 -3.90634
 (dLV/dLT)p        1.0000   1.0000  40.6315
 Cp, KJ/(KG)(K)    1.7295   1.6778 207.9575
 GAMMAs            1.2870   1.2984   1.1439
 SON VEL,M/SEC      623.9    585.1    398.8
 MACH NUMBER        0.000    1.000    2.969

 TRANSPORT PROPERTIES (GASES ONLY)
   CONDUCTIVITY IN UNITS OF MILLIWATTS/(CM)(K)

 VISC,MILLIPOISE  0.34511  0.30558  0.17163

  WITH EQUILIBRIUM REACTIONS

 Cp, KJ/(KG)(K)    1.7295   1.6778   1.5240
 CONDUCTIVITY      0.6769   0.5710   0.2813
 PRANDTL NUMBER    0.8818   0.8979   0.9299

  WITH FROZEN REACTIONS

 Cp, KJ/(KG)(K)    1.7295   1.6778   1.5240
 CONDUCTIVITY      0.6769   0.5710   0.2813
 PRANDTL NUMBER    0.8818   0.8979   0.9299

 PERFORMANCE PARAMETERS

 Ae/At                      1.0000   4.0000
 CSTAR, M/SEC                825.6    825.6
 CF                         0.7087   1.4338
 Ivac, M/SEC                1035.7   1301.2
 Isp, M/SEC                  585.1   1183.8


 MOLE FRACTIONS

 H2O              0.74645  0.74645  0.73689
 *O2              0.25355  0.25355  0.25355
 H2O(L)           0.00000  0.00000  0.00956

  * THERMODYNAMIC PROPERTIES FITTED TO 20000.K

    PRODUCTS WHICH WERE CONSIDERED BUT WHOSE MOLE FRACTIONS
    WERE LESS THAN 5.000000E-06 FOR ALL ASSIGNED CONDITIONS

 *H              HO2             *H2             H2O2            *O             
 *OH             O3              H2O(cr)        

 NOTE. WEIGHT FRACTION OF FUEL IN TOTAL FUELS AND OF OXIDANT IN TOTAL OXIDANTS





           THEORETICAL ROCKET PERFORMANCE ASSUMING FROZEN COMPOSITION

 Pin =   391.6 PSIA
 CASE =                

             REACTANT                    WT FRACTION      ENERGY      TEMP
                                          (SEE NOTE)     KJ/KG-MOL      K  
 FUEL        H2O(L)                       1.0000000   -285841.390    298.000
 OXIDANT     H2O2(L)                      1.0000000   -187793.400    298.000

 O/F=    4.00000  %FUEL= 20.000000  R,EQ.RATIO= 0.595473  PHI,EQ.RATIO= 0.000000

                 CHAMBER   THROAT     EXIT
 Pinf/P            1.0000   1.8322   29.143
 P, BAR            27.000   14.736  0.92645
 T, K              784.21   683.74   348.98
 RHO, KG/CU M    8.9281 0 5.5890 0 6.8841-1
 H, KJ/KG        -7590.08 -7761.26 -8295.25
 U, KJ/KG        -7892.50 -8024.93 -8429.83
 G, KJ/KG        -14990.0 -14213.1 -11588.3
 S, KJ/(KG)(K)     9.4361   9.4361   9.4361

 M, (1/n)          21.561   21.561   21.561
 MW, MOL WT        21.561   21.561   21.561
 Cp, KJ/(KG)(K)    1.7295   1.6778   1.5219
 GAMMAs            1.2870   1.2984   1.3394
 SON VEL,M/SEC      623.9    585.1    424.6
 MACH NUMBER        0.000    1.000    2.797

 TRANSPORT PROPERTIES (GASES ONLY)
   CONDUCTIVITY IN UNITS OF MILLIWATTS/(CM)(K)

 VISC,MILLIPOISE  0.34511  0.30558  0.16492

  WITH FROZEN REACTIONS

 Cp, KJ/(KG)(K)    1.7295   1.6778   1.5219
 CONDUCTIVITY      0.6769   0.5710   0.2706
 PRANDTL NUMBER    0.8818   0.8979   0.9277

 PERFORMANCE PARAMETERS

 Ae/At                      1.0000   4.0000
 CSTAR, M/SEC                825.6    825.6
 CF                         0.7087   1.4384
 Ivac, M/SEC                1035.7   1300.9
 Isp, M/SEC                  585.1   1187.6

 MOLE FRACTIONS

 H2O             0.74645   *O2             0.25355

  * THERMODYNAMIC PROPERTIES FITTED TO 20000.K

    PRODUCTS WHICH WERE CONSIDERED BUT WHOSE MOLE FRACTIONS
    WERE LESS THAN 5.000000E-06 FOR ALL ASSIGNED CONDITIONS

 *H              HO2             *H2             H2O2            *O             
 *OH             O3              H2O(cr)        

 NOTE. WEIGHT FRACTION OF FUEL IN TOTAL FUELS AND OF OXIDANT IN TOTAL OXIDANTS






 POINT ITN      T            H           O 
   1    1     784.212     -23.107     -11.994
 Pinf/Pt = 1.824496
   2    3     684.399     -25.865     -12.143
 Pinf/Pt = 1.832146
   2    2     683.741     -25.886     -12.144
 Pinf/Pt = 1.832196
   2    1     683.736     -25.886     -12.144
   3    4     360.926     -45.278     -13.007
 ADD  H2O(L)         
   3    2     367.596     -44.553     -13.010
   3    3     364.966     -44.863     -13.053
   3    2     364.973     -44.862     -13.053





              THEORETICAL ROCKET PERFORMANCE ASSUMING EQUILIBRIUM

           COMPOSITION DURING EXPANSION FROM INFINITE AREA COMBUSTOR

 Pin =   406.1 PSIA
 CASE =                

             REACTANT                    WT FRACTION      ENERGY      TEMP
                                          (SEE NOTE)     KJ/KG-MOL      K  
 FUEL        H2O(L)                       1.0000000   -285841.390    298.000
 OXIDANT     H2O2(L)                      1.0000000   -187793.400    298.000

 O/F=    4.00000  %FUEL= 20.000000  R,EQ.RATIO= 0.595473  PHI,EQ.RATIO= 0.000000

                 CHAMBER   THROAT     EXIT
 Pinf/P            1.0000   1.8322   28.059
 P, BAR            28.000   15.282  0.99788
 T, K              784.21   683.74   364.97
 RHO, KG/CU M    9.2587 0 5.7959 0 7.1634-1
 H, KJ/KG        -7590.08 -7761.26 -8290.47
 U, KJ/KG        -7892.50 -8024.93 -8429.77
 G, KJ/KG        -14979.0 -14203.5 -11729.3
 S, KJ/(KG)(K)     9.4221   9.4221   9.4221

 M, (1/n)          21.561   21.561   21.784
 MW, MOL WT        21.561   21.561   21.561
 (dLV/dLP)t      -1.00000 -1.00000 -3.90362
 (dLV/dLT)p        1.0000   1.0000  40.4416
 Cp, KJ/(KG)(K)    1.7295   1.6778 206.0344
 GAMMAs            1.2870   1.2984   1.1444
 SON VEL,M/SEC      623.9    585.1    399.3
 MACH NUMBER        0.000    1.000    2.964

 TRANSPORT PROPERTIES (GASES ONLY)
   CONDUCTIVITY IN UNITS OF MILLIWATTS/(CM)(K)

 VISC,MILLIPOISE  0.34511  0.30558  0.17209

  WITH EQUILIBRIUM REACTIONS

 Cp, KJ/(KG)(K)    1.7295   1.6778   1.5242
 CONDUCTIVITY      0.6769   0.5710   0.2820
 PRANDTL NUMBER    0.8818   0.8979   0.9300

  WITH FROZEN REACTIONS

 Cp, KJ/(KG)(K)    1.7295   1.6778   1.5242
 CONDUCTIVITY      0.6769   0.5710   0.2820
 PRANDTL NUMBER    0.8818   0.8979   0.9300

 PERFORMANCE PARAMETERS

 Ae/At                      1.0000   4.0000
 CSTAR, M/SEC                825.6    825.6
 CF                         0.7087   1.4335
 Ivac, M/SEC                1035.7   1301.2
 Isp, M/SEC                  585.1   1183.5


 MOLE FRACTIONS

 H2O              0.74645  0.74645  0.73620
 *O2              0.25355  0.25355  0.25355
 H2O(L)           0.00000  0.00000  0.01025

  * THERMODYNAMIC PROPERTIES FITTED TO 20000.K

    PRODUCTS WHICH WERE CONSIDERED BUT WHOSE MOLE FRACTIONS
    WERE LESS THAN 5.000000E-06 FOR ALL ASSIGNED CONDITIONS

 *H              HO2             *H2             H2O2            *O             
 *OH             O3              H2O(cr)        

 NOTE. WEIGHT FRACTION OF FUEL IN TOTAL FUELS AND OF OXIDANT IN TOTAL OXIDANTS





           THEORETICAL ROCKET PERFORMANCE ASSUMING FROZEN COMPOSITION

 Pin =   406.1 PSIA
 CASE =                

             REACTANT                    WT FRACTION      ENERGY      TEMP
                                          (SEE NOTE)     KJ/KG-MOL      K  
 FUEL        H2O(L)                       1.0000000   -285841.390    298.000
 OXIDANT     H2O2(L)                      1.0000000   -187793.400    298.000

 O/F=    4.00000  %FUEL= 20.000000  R,EQ.RATIO= 0.595473  PHI,EQ.RATIO= 0.000000

                 CHAMBER   THROAT     EXIT
 Pinf/P            1.0000   1.8322   29.143
 P, BAR            28.000   15.282  0.96077
 T, K              784.21   683.74   348.98
 RHO, KG/CU M    9.2587 0 5.7959 0 7.1391-1
 H, KJ/KG        -7590.08 -7761.26 -8295.25
 U, KJ/KG        -7892.50 -8024.93 -8429.83
 G, KJ/KG        -14979.0 -14203.5 -11583.4
 S, KJ/(KG)(K)     9.4221   9.4221   9.4221

 M, (1/n)          21.561   21.561   21.561
 MW, MOL WT        21.561   21.561   21.561
 Cp, KJ/(KG)(K)    1.7295   1.6778   1.5219
 GAMMAs            1.2870   1.2984   1.3394
 SON VEL,M/SEC      623.9    585.1    424.6
 MACH NUMBER        0.000    1.000    2.797

 TRANSPORT PROPERTIES (GASES ONLY)
   CONDUCTIVITY IN UNITS OF MILLIWATTS/(CM)(K)

 VISC,MILLIPOISE  0.34511  0.30558  0.16492

  WITH FROZEN REACTIONS

 Cp, KJ/(KG)(K)    1.7295   1.6778   1.5219
 CONDUCTIVITY      0.6769   0.5710   0.2706
 PRANDTL NUMBER    0.8818   0.8979   0.9277

 PERFORMANCE PARAMETERS

 Ae/At                      1.0000   4.0000
 CSTAR, M/SEC                825.6    825.6
 CF                         0.7087   1.4384
 Ivac, M/SEC                1035.7   1300.9
 Isp, M/SEC                  585.1   1187.6

 MOLE FRACTIONS

 H2O             0.74645   *O2             0.25355

  * THERMODYNAMIC PROPERTIES FITTED TO 20000.K

    PRODUCTS WHICH WERE CONSIDERED BUT WHOSE MOLE FRACTIONS
    WERE LESS THAN 5.000000E-06 FOR ALL ASSIGNED CONDITIONS

 *H              HO2             *H2             H2O2            *O             
 *OH             O3              H2O(cr)        

 NOTE. WEIGHT FRACTION OF FUEL IN TOTAL FUELS AND OF OXIDANT IN TOTAL OXIDANTS






 POINT ITN      T            H           O 
   1    1     784.212     -23.098     -11.976
 Pinf/Pt = 1.824496
   2    3     684.399     -25.856     -12.125
 Pinf/Pt = 1.832146
   2    2     683.741     -25.877     -12.126
 Pinf/Pt = 1.832196
   2    1     683.736     -25.877     -12.126
   3    4     360.926     -45.270     -12.989
 ADD  H2O(L)         
   3    2     368.550     -44.443     -12.993
   3    3     365.966     -44.745     -13.035
   3    2     365.973     -44.745     -13.035





              THEORETICAL ROCKET PERFORMANCE ASSUMING EQUILIBRIUM

           COMPOSITION DURING EXPANSION FROM INFINITE AREA COMBUSTOR

 Pin =   420.6 PSIA
 CASE =                

             REACTANT                    WT FRACTION      ENERGY      TEMP
                                          (SEE NOTE)     KJ/KG-MOL      K  
 FUEL        H2O(L)                       1.0000000   -285841.390    298.000
 OXIDANT     H2O2(L)                      1.0000000   -187793.400    298.000

 O/F=    4.00000  %FUEL= 20.000000  R,EQ.RATIO= 0.595473  PHI,EQ.RATIO= 0.000000

                 CHAMBER   THROAT     EXIT
 Pinf/P            1.0000   1.8322   27.997
 P, BAR            29.000   15.828   1.0358
 T, K              784.21   683.74   365.97
 RHO, KG/CU M    9.5894 0 6.0029 0 7.4206-1
 H, KJ/KG        -7590.08 -7761.26 -8290.21
 U, KJ/KG        -7892.50 -8024.93 -8429.80
 G, KJ/KG        -14968.4 -14194.3 -11733.5
 S, KJ/(KG)(K)     9.4086   9.4086   9.4086

 M, (1/n)          21.561   21.561   21.799
 MW, MOL WT        21.561   21.561   21.561
 (dLV/dLP)t      -1.00000 -1.00000 -3.90096
 (dLV/dLT)p        1.0000   1.0000  40.2580
 Cp, KJ/(KG)(K)    1.7295   1.6778 204.1843
 GAMMAs            1.2870   1.2984   1.1449
 SON VEL,M/SEC      623.9    585.1    399.8
 MACH NUMBER        0.000    1.000    2.960

 TRANSPORT PROPERTIES (GASES ONLY)
   CONDUCTIVITY IN UNITS OF MILLIWATTS/(CM)(K)

 VISC,MILLIPOISE  0.34511  0.30558  0.17255

  WITH EQUILIBRIUM REACTIONS

 Cp, KJ/(KG)(K)    1.7295   1.6778   1.5243
 CONDUCTIVITY      0.6769   0.5710   0.2828
 PRANDTL NUMBER    0.8818   0.8979   0.9301

  WITH FROZEN REACTIONS

 Cp, KJ/(KG)(K)    1.7295   1.6778   1.5243
 CONDUCTIVITY      0.6769   0.5710   0.2828
 PRANDTL NUMBER    0.8818   0.8979   0.9301

 PERFORMANCE PARAMETERS

 Ae/At                      1.0000   4.0000
 CSTAR, M/SEC                825.6    825.6
 CF                         0.7087   1.4332
 Ivac, M/SEC                1035.7   1301.3
 Isp, M/SEC                  585.1   1183.3


 MOLE FRACTIONS

 H2O              0.74645  0.74645  0.73553
 *O2              0.25355  0.25355  0.25355
 H2O(L)           0.00000  0.00000  0.01092

  * THERMODYNAMIC PROPERTIES FITTED TO 20000.K

    PRODUCTS WHICH WERE CONSIDERED BUT WHOSE MOLE FRACTIONS
    WERE LESS THAN 5.000000E-06 FOR ALL ASSIGNED CONDITIONS

 *H              HO2             *H2             H2O2            *O             
 *OH             O3              H2O(cr)        

 NOTE. WEIGHT FRACTION OF FUEL IN TOTAL FUELS AND OF OXIDANT IN TOTAL OXIDANTS





           THEORETICAL ROCKET PERFORMANCE ASSUMING FROZEN COMPOSITION

 Pin =   420.6 PSIA
 CASE =                

             REACTANT                    WT FRACTION      ENERGY      TEMP
                                          (SEE NOTE)     KJ/KG-MOL      K  
 FUEL        H2O(L)                       1.0000000   -285841.390    298.000
 OXIDANT     H2O2(L)                      1.0000000   -187793.400    298.000

 O/F=    4.00000  %FUEL= 20.000000  R,EQ.RATIO= 0.595473  PHI,EQ.RATIO= 0.000000

                 CHAMBER   THROAT     EXIT
 Pinf/P            1.0000   1.8322   29.143
 P, BAR            29.000   15.828  0.99508
 T, K              784.21   683.74   348.98
 RHO, KG/CU M    9.5894 0 6.0029 0 7.3941-1
 H, KJ/KG        -7590.08 -7761.26 -8295.25
 U, KJ/KG        -7892.50 -8024.93 -8429.83
 G, KJ/KG        -14968.4 -14194.3 -11578.7
 S, KJ/(KG)(K)     9.4086   9.4086   9.4086

 M, (1/n)          21.561   21.561   21.561
 MW, MOL WT        21.561   21.561   21.561
 Cp, KJ/(KG)(K)    1.7295   1.6778   1.5219
 GAMMAs            1.2870   1.2984   1.3394
 SON VEL,M/SEC      623.9    585.1    424.6
 MACH NUMBER        0.000    1.000    2.797

 TRANSPORT PROPERTIES (GASES ONLY)
   CONDUCTIVITY IN UNITS OF MILLIWATTS/(CM)(K)

 VISC,MILLIPOISE  0.34511  0.30558  0.16492

  WITH FROZEN REACTIONS

 Cp, KJ/(KG)(K)    1.7295   1.6778   1.5219
 CONDUCTIVITY      0.6769   0.5710   0.2706
 PRANDTL NUMBER    0.8818   0.8979   0.9277

 PERFORMANCE PARAMETERS

 Ae/At                     1.00000   4.0000
 CSTAR, M/SEC                825.6    825.6
 CF                         0.7087   1.4384
 Ivac, M/SEC                1035.7   1300.9
 Isp, M/SEC                  585.1   1187.6

 MOLE FRACTIONS

 H2O             0.74645   *O2             0.25355

  * THERMODYNAMIC PROPERTIES FITTED TO 20000.K

    PRODUCTS WHICH WERE CONSIDERED BUT WHOSE MOLE FRACTIONS
    WERE LESS THAN 5.000000E-06 FOR ALL ASSIGNED CONDITIONS

 *H              HO2             *H2             H2O2            *O             
 *OH             O3              H2O(cr)        

 NOTE. WEIGHT FRACTION OF FUEL IN TOTAL FUELS AND OF OXIDANT IN TOTAL OXIDANTS






 POINT ITN      T            H           O 
   1    1     784.212     -23.090     -11.959
 Pinf/Pt = 1.824496
   2    3     684.399     -25.848     -12.108
 Pinf/Pt = 1.832146
   2    2     683.741     -25.869     -12.109
 Pinf/Pt = 1.832196
   2    1     683.736     -25.869     -12.109
   3    4     360.926     -45.261     -12.972
 ADD  H2O(L)         
   3    2     369.478     -44.336     -12.977
   3    3     366.939     -44.632     -13.017
   3    2     366.946     -44.631     -13.017





              THEORETICAL ROCKET PERFORMANCE ASSUMING EQUILIBRIUM

           COMPOSITION DURING EXPANSION FROM INFINITE AREA COMBUSTOR

 Pin =   435.1 PSIA
 CASE =                

             REACTANT                    WT FRACTION      ENERGY      TEMP
                                          (SEE NOTE)     KJ/KG-MOL      K  
 FUEL        H2O(L)                       1.0000000   -285841.390    298.000
 OXIDANT     H2O2(L)                      1.0000000   -187793.400    298.000

 O/F=    4.00000  %FUEL= 20.000000  R,EQ.RATIO= 0.595473  PHI,EQ.RATIO= 0.000000

                 CHAMBER   THROAT     EXIT
 Pinf/P            1.0000   1.8322   27.936
 P, BAR            30.000   16.374   1.0739
 T, K              784.21   683.74   366.95
 RHO, KG/CU M    9.9201 0 6.2099 0 7.6779-1
 H, KJ/KG        -7590.08 -7761.26 -8289.96
 U, KJ/KG        -7892.50 -8024.93 -8429.83
 G, KJ/KG        -14958.2 -14185.3 -11737.6
 S, KJ/(KG)(K)     9.3955   9.3955   9.3955

 M, (1/n)          21.561   21.561   21.813
 MW, MOL WT        21.561   21.561   21.561
 (dLV/dLP)t      -1.00000 -1.00000 -3.89836
 (dLV/dLT)p        1.0000   1.0000  40.0803
 Cp, KJ/(KG)(K)    1.7295   1.6778 202.4020
 GAMMAs            1.2870   1.2984   1.1453
 SON VEL,M/SEC      623.9    585.1    400.2
 MACH NUMBER        0.000    1.000    2.956

 TRANSPORT PROPERTIES (GASES ONLY)
   CONDUCTIVITY IN UNITS OF MILLIWATTS/(CM)(K)

 VISC,MILLIPOISE  0.34511  0.30558  0.17299

  WITH EQUILIBRIUM REACTIONS

 Cp, KJ/(KG)(K)    1.7295   1.6778   1.5245
 CONDUCTIVITY      0.6769   0.5710   0.2835
 PRANDTL NUMBER    0.8818   0.8979   0.9302

  WITH FROZEN REACTIONS

 Cp, KJ/(KG)(K)    1.7295   1.6778   1.5245
 CONDUCTIVITY      0.6769   0.5710   0.2835
 PRANDTL NUMBER    0.8818   0.8979   0.9302

 PERFORMANCE PARAMETERS

 Ae/At                      1.0000   4.0000
 CSTAR, M/SEC                825.6    825.6
 CF                         0.7087   1.4330
 Ivac, M/SEC                1035.7   1301.3
 Isp, M/SEC                  585.1   1183.1


 MOLE FRACTIONS

 H2O              0.74645  0.74645  0.73487
 *O2              0.25355  0.25355  0.25355
 H2O(L)           0.00000  0.00000  0.01158

  * THERMODYNAMIC PROPERTIES FITTED TO 20000.K

    PRODUCTS WHICH WERE CONSIDERED BUT WHOSE MOLE FRACTIONS
    WERE LESS THAN 5.000000E-06 FOR ALL ASSIGNED CONDITIONS

 *H              HO2             *H2             H2O2            *O             
 *OH             O3              H2O(cr)        

 NOTE. WEIGHT FRACTION OF FUEL IN TOTAL FUELS AND OF OXIDANT IN TOTAL OXIDANTS





           THEORETICAL ROCKET PERFORMANCE ASSUMING FROZEN COMPOSITION

 Pin =   435.1 PSIA
 CASE =                

             REACTANT                    WT FRACTION      ENERGY      TEMP
                                          (SEE NOTE)     KJ/KG-MOL      K  
 FUEL        H2O(L)                       1.0000000   -285841.390    298.000
 OXIDANT     H2O2(L)                      1.0000000   -187793.400    298.000

 O/F=    4.00000  %FUEL= 20.000000  R,EQ.RATIO= 0.595473  PHI,EQ.RATIO= 0.000000

                 CHAMBER   THROAT     EXIT
 Pinf/P            1.0000   1.8322   29.143
 P, BAR            30.000   16.374   1.0294
 T, K              784.21   683.74   348.98
 RHO, KG/CU M    9.9201 0 6.2099 0 7.6490-1
 H, KJ/KG        -7590.08 -7761.26 -8295.25
 U, KJ/KG        -7892.50 -8024.93 -8429.83
 G, KJ/KG        -14958.2 -14185.3 -11574.1
 S, KJ/(KG)(K)     9.3955   9.3955   9.3955

 M, (1/n)          21.561   21.561   21.561
 MW, MOL WT        21.561   21.561   21.561
 Cp, KJ/(KG)(K)    1.7295   1.6778   1.5219
 GAMMAs            1.2870   1.2984   1.3394
 SON VEL,M/SEC      623.9    585.1    424.6
 MACH NUMBER        0.000    1.000    2.797

 TRANSPORT PROPERTIES (GASES ONLY)
   CONDUCTIVITY IN UNITS OF MILLIWATTS/(CM)(K)

 VISC,MILLIPOISE  0.34511  0.30558  0.16492

  WITH FROZEN REACTIONS

 Cp, KJ/(KG)(K)    1.7295   1.6778   1.5219
 CONDUCTIVITY      0.6769   0.5710   0.2706
 PRANDTL NUMBER    0.8818   0.8979   0.9277

 PERFORMANCE PARAMETERS

 Ae/At                      1.0000   4.0000
 CSTAR, M/SEC                825.6    825.6
 CF                         0.7087   1.4384
 Ivac, M/SEC                1035.7   1300.9
 Isp, M/SEC                  585.1   1187.6

 MOLE FRACTIONS

 H2O             0.74645   *O2             0.25355

  * THERMODYNAMIC PROPERTIES FITTED TO 20000.K

    PRODUCTS WHICH WERE CONSIDERED BUT WHOSE MOLE FRACTIONS
    WERE LESS THAN 5.000000E-06 FOR ALL ASSIGNED CONDITIONS

 *H              HO2             *H2             H2O2            *O             
 *OH             O3              H2O(cr)        

 NOTE. WEIGHT FRACTION OF FUEL IN TOTAL FUELS AND OF OXIDANT IN TOTAL OXIDANTS






 POINT ITN      T            H           O 
   1    1     784.212     -23.081     -11.943
 Pinf/Pt = 1.824496
   2    3     684.399     -25.840     -12.092
 Pinf/Pt = 1.832146
   2    2     683.741     -25.861     -12.093
 Pinf/Pt = 1.832196
   2    1     683.736     -25.861     -12.093
   3    4     360.926     -45.253     -12.956
 ADD  H2O(L)         
   3    2     370.380     -44.233     -12.961
   3    3     367.885     -44.522     -13.000
   3    2     367.892     -44.521     -13.000





              THEORETICAL ROCKET PERFORMANCE ASSUMING EQUILIBRIUM

           COMPOSITION DURING EXPANSION FROM INFINITE AREA COMBUSTOR

 Pin =   449.6 PSIA
 CASE =                

             REACTANT                    WT FRACTION      ENERGY      TEMP
                                          (SEE NOTE)     KJ/KG-MOL      K  
 FUEL        H2O(L)                       1.0000000   -285841.390    298.000
 OXIDANT     H2O2(L)                      1.0000000   -187793.400    298.000

 O/F=    4.00000  %FUEL= 20.000000  R,EQ.RATIO= 0.595473  PHI,EQ.RATIO= 0.000000

                 CHAMBER   THROAT     EXIT
 Pinf/P            1.0000   1.8322   27.878
 P, BAR            31.000   16.920   1.1120
 T, K              784.21   683.74   367.89
 RHO, KG/CU M    1.0251 1 6.4169 0 7.9352-1
 H, KJ/KG        -7590.08 -7761.26 -8289.72
 U, KJ/KG        -7892.50 -8024.93 -8429.86
 G, KJ/KG        -14948.2 -14176.7 -11741.6
 S, KJ/(KG)(K)     9.3829   9.3829   9.3829

 M, (1/n)          21.561   21.561   21.828
 MW, MOL WT        21.561   21.561   21.561
 (dLV/dLP)t      -1.00000 -1.00000 -3.89582
 (dLV/dLT)p        1.0000   1.0000  39.9082
 Cp, KJ/(KG)(K)    1.7295   1.6778 200.6830
 GAMMAs            1.2870   1.2984   1.1457
 SON VEL,M/SEC      623.9    585.1    400.7
 MACH NUMBER        0.000    1.000    2.952

 TRANSPORT PROPERTIES (GASES ONLY)
   CONDUCTIVITY IN UNITS OF MILLIWATTS/(CM)(K)

 VISC,MILLIPOISE  0.34511  0.30558  0.17342

  WITH EQUILIBRIUM REACTIONS

 Cp, KJ/(KG)(K)    1.7295   1.6778   1.5246
 CONDUCTIVITY      0.6769   0.5710   0.2842
 PRANDTL NUMBER    0.8818   0.8979   0.9303

  WITH FROZEN REACTIONS

 Cp, KJ/(KG)(K)    1.7295   1.6778   1.5246
 CONDUCTIVITY      0.6769   0.5710   0.2842
 PRANDTL NUMBER    0.8818   0.8979   0.9303

 PERFORMANCE PARAMETERS

 Ae/At                      1.0000   4.0000
 CSTAR, M/SEC                825.6    825.6
 CF                         0.7087   1.4327
 Ivac, M/SEC                1035.7   1301.4
 Isp, M/SEC                  585.1   1182.9


 MOLE FRACTIONS

 H2O              0.74645  0.74645  0.73422
 *O2              0.25355  0.25355  0.25355
 H2O(L)           0.00000  0.00000  0.01223

  * THERMODYNAMIC PROPERTIES FITTED TO 20000.K

    PRODUCTS WHICH WERE CONSIDERED BUT WHOSE MOLE FRACTIONS
    WERE LESS THAN 5.000000E-06 FOR ALL ASSIGNED CONDITIONS

 *H              HO2             *H2             H2O2            *O             
 *OH             O3              H2O(cr)        

 NOTE. WEIGHT FRACTION OF FUEL IN TOTAL FUELS AND OF OXIDANT IN TOTAL OXIDANTS





           THEORETICAL ROCKET PERFORMANCE ASSUMING FROZEN COMPOSITION

 Pin =   449.6 PSIA
 CASE =                

             REACTANT                    WT FRACTION      ENERGY      TEMP
                                          (SEE NOTE)     KJ/KG-MOL      K  
 FUEL        H2O(L)                       1.0000000   -285841.390    298.000
 OXIDANT     H2O2(L)                      1.0000000   -187793.400    298.000

 O/F=    4.00000  %FUEL= 20.000000  R,EQ.RATIO= 0.595473  PHI,EQ.RATIO= 0.000000

                 CHAMBER   THROAT     EXIT
 Pinf/P            1.0000   1.8322   29.143
 P, BAR            31.000   16.920   1.0637
 T, K              784.21   683.74   348.98
 RHO, KG/CU M    1.0251 1 6.4169 0 7.9040-1
 H, KJ/KG        -7590.08 -7761.26 -8295.25
 U, KJ/KG        -7892.50 -8024.93 -8429.83
 G, KJ/KG        -14948.2 -14176.7 -11569.7
 S, KJ/(KG)(K)     9.3829   9.3829   9.3829

 M, (1/n)          21.561   21.561   21.561
 MW, MOL WT        21.561   21.561   21.561
 Cp, KJ/(KG)(K)    1.7295   1.6778   1.5219
 GAMMAs            1.2870   1.2984   1.3394
 SON VEL,M/SEC      623.9    585.1    424.6
 MACH NUMBER        0.000    1.000    2.797

 TRANSPORT PROPERTIES (GASES ONLY)
   CONDUCTIVITY IN UNITS OF MILLIWATTS/(CM)(K)

 VISC,MILLIPOISE  0.34511  0.30558  0.16492

  WITH FROZEN REACTIONS

 Cp, KJ/(KG)(K)    1.7295   1.6778   1.5219
 CONDUCTIVITY      0.6769   0.5710   0.2706
 PRANDTL NUMBER    0.8818   0.8979   0.9277

 PERFORMANCE PARAMETERS

 Ae/At                      1.0000   4.0000
 CSTAR, M/SEC                825.6    825.6
 CF                         0.7087   1.4384
 Ivac, M/SEC                1035.7   1300.9
 Isp, M/SEC                  585.1   1187.6

 MOLE FRACTIONS

 H2O             0.74645   *O2             0.25355

  * THERMODYNAMIC PROPERTIES FITTED TO 20000.K

    PRODUCTS WHICH WERE CONSIDERED BUT WHOSE MOLE FRACTIONS
    WERE LESS THAN 5.000000E-06 FOR ALL ASSIGNED CONDITIONS

 *H              HO2             *H2             H2O2            *O             
 *OH             O3              H2O(cr)        

 NOTE. WEIGHT FRACTION OF FUEL IN TOTAL FUELS AND OF OXIDANT IN TOTAL OXIDANTS






 POINT ITN      T            H           O 
   1    1     784.212     -23.074     -11.927
 Pinf/Pt = 1.824496
   2    3     684.399     -25.832     -12.076
 Pinf/Pt = 1.832146
   2    2     683.741     -25.853     -12.077
 Pinf/Pt = 1.832196
   2    1     683.736     -25.853     -12.077
   3    4     360.926     -45.245     -12.940
 ADD  H2O(L)         
   3    2     371.259     -44.133     -12.945
   3    3     368.807     -44.416     -12.984
   3    2     368.813     -44.415     -12.984





              THEORETICAL ROCKET PERFORMANCE ASSUMING EQUILIBRIUM

           COMPOSITION DURING EXPANSION FROM INFINITE AREA COMBUSTOR

 Pin =   464.1 PSIA
 CASE =                

             REACTANT                    WT FRACTION      ENERGY      TEMP
                                          (SEE NOTE)     KJ/KG-MOL      K  
 FUEL        H2O(L)                       1.0000000   -285841.390    298.000
 OXIDANT     H2O2(L)                      1.0000000   -187793.400    298.000

 O/F=    4.00000  %FUEL= 20.000000  R,EQ.RATIO= 0.595473  PHI,EQ.RATIO= 0.000000

                 CHAMBER   THROAT     EXIT
 Pinf/P            1.0000   1.8322   27.821
 P, BAR            32.000   17.465   1.1502
 T, K              784.21   683.74   368.81
 RHO, KG/CU M    1.0581 1 6.6239 0 8.1925-1
 H, KJ/KG        -7590.08 -7761.26 -8289.50
 U, KJ/KG        -7892.50 -8024.93 -8429.89
 G, KJ/KG        -14938.6 -14168.3 -11745.5
 S, KJ/(KG)(K)     9.3706   9.3706   9.3706

 M, (1/n)          21.561   21.561   21.842
 MW, MOL WT        21.561   21.561   21.561
 (dLV/dLP)t      -1.00000 -1.00000 -3.89333
 (dLV/dLT)p        1.0000   1.0000  39.7412
 Cp, KJ/(KG)(K)    1.7295   1.6778 199.0230
 GAMMAs            1.2870   1.2984   1.1462
 SON VEL,M/SEC      623.9    585.1    401.1
 MACH NUMBER        0.000    1.000    2.948

 TRANSPORT PROPERTIES (GASES ONLY)
   CONDUCTIVITY IN UNITS OF MILLIWATTS/(CM)(K)

 VISC,MILLIPOISE  0.34511  0.30558  0.17384

  WITH EQUILIBRIUM REACTIONS

 Cp, KJ/(KG)(K)    1.7295   1.6778   1.5247
 CONDUCTIVITY      0.6769   0.5710   0.2849
 PRANDTL NUMBER    0.8818   0.8979   0.9303

  WITH FROZEN REACTIONS

 Cp, KJ/(KG)(K)    1.7295   1.6778   1.5247
 CONDUCTIVITY      0.6769   0.5710   0.2849
 PRANDTL NUMBER    0.8818   0.8979   0.9303

 PERFORMANCE PARAMETERS

 Ae/At                     1.00000   4.0000
 CSTAR, M/SEC                825.6    825.6
 CF                         0.7087   1.4325
 Ivac, M/SEC                1035.7   1301.4
 Isp, M/SEC                  585.1   1182.7


 MOLE FRACTIONS

 H2O              0.74645  0.74645  0.73359
 *O2              0.25355  0.25355  0.25355
 H2O(L)           0.00000  0.00000  0.01286

  * THERMODYNAMIC PROPERTIES FITTED TO 20000.K

    PRODUCTS WHICH WERE CONSIDERED BUT WHOSE MOLE FRACTIONS
    WERE LESS THAN 5.000000E-06 FOR ALL ASSIGNED CONDITIONS

 *H              HO2             *H2             H2O2            *O             
 *OH             O3              H2O(cr)        

 NOTE. WEIGHT FRACTION OF FUEL IN TOTAL FUELS AND OF OXIDANT IN TOTAL OXIDANTS





           THEORETICAL ROCKET PERFORMANCE ASSUMING FROZEN COMPOSITION

 Pin =   464.1 PSIA
 CASE =                

             REACTANT                    WT FRACTION      ENERGY      TEMP
                                          (SEE NOTE)     KJ/KG-MOL      K  
 FUEL        H2O(L)                       1.0000000   -285841.390    298.000
 OXIDANT     H2O2(L)                      1.0000000   -187793.400    298.000

 O/F=    4.00000  %FUEL= 20.000000  R,EQ.RATIO= 0.595473  PHI,EQ.RATIO= 0.000000

                 CHAMBER   THROAT     EXIT
 Pinf/P            1.0000   1.8322   29.143
 P, BAR            32.000   17.465   1.0980
 T, K              784.21   683.74   348.98
 RHO, KG/CU M    1.0581 1 6.6239 0 8.1590-1
 H, KJ/KG        -7590.08 -7761.26 -8295.25
 U, KJ/KG        -7892.50 -8024.93 -8429.83
 G, KJ/KG        -14938.6 -14168.3 -11565.4
 S, KJ/(KG)(K)     9.3706   9.3706   9.3706

 M, (1/n)          21.561   21.561   21.561
 MW, MOL WT        21.561   21.561   21.561
 Cp, KJ/(KG)(K)    1.7295   1.6778   1.5219
 GAMMAs            1.2870   1.2984   1.3394
 SON VEL,M/SEC      623.9    585.1    424.6
 MACH NUMBER        0.000    1.000    2.797

 TRANSPORT PROPERTIES (GASES ONLY)
   CONDUCTIVITY IN UNITS OF MILLIWATTS/(CM)(K)

 VISC,MILLIPOISE  0.34511  0.30558  0.16492

  WITH FROZEN REACTIONS

 Cp, KJ/(KG)(K)    1.7295   1.6778   1.5219
 CONDUCTIVITY      0.6769   0.5710   0.2706
 PRANDTL NUMBER    0.8818   0.8979   0.9277

 PERFORMANCE PARAMETERS

 Ae/At                      1.0000   4.0000
 CSTAR, M/SEC                825.6    825.6
 CF                         0.7087   1.4384
 Ivac, M/SEC                1035.7   1300.9
 Isp, M/SEC                  585.1   1187.6

 MOLE FRACTIONS

 H2O             0.74645   *O2             0.25355

  * THERMODYNAMIC PROPERTIES FITTED TO 20000.K

    PRODUCTS WHICH WERE CONSIDERED BUT WHOSE MOLE FRACTIONS
    WERE LESS THAN 5.000000E-06 FOR ALL ASSIGNED CONDITIONS

 *H              HO2             *H2             H2O2            *O             
 *OH             O3              H2O(cr)        

 NOTE. WEIGHT FRACTION OF FUEL IN TOTAL FUELS AND OF OXIDANT IN TOTAL OXIDANTS






 O/F =   5.000000

                       EFFECTIVE FUEL     EFFECTIVE OXIDANT        MIXTURE
 ENTHALPY                  h(2)/R              h(1)/R               h0/R
 (KG-MOL)(K)/KG       -0.19083035E+04     -0.66401406E+03     -0.87139563E+03

 KG-FORM.WT./KG             bi(2)               bi(1)               b0i
  *H                   0.11101687E+00      0.58798142E-01      0.67501264E-01
  *O                   0.55508435E-01      0.58798142E-01      0.58249858E-01

 POINT ITN      T            H           O 
   1    3     866.159     -21.479     -12.147
 Pinf/Pt = 1.819601
   2    3     758.563     -23.908     -12.287
 Pinf/Pt = 1.827338
   2    2     757.839     -23.927     -12.288
 Pinf/Pt = 1.827390
   2    1     757.834     -23.927     -12.288
   3    4     404.559     -41.009     -13.080
   3    2     391.605     -42.221     -13.130
   3    2     391.654     -42.216     -13.130





              THEORETICAL ROCKET PERFORMANCE ASSUMING EQUILIBRIUM

           COMPOSITION DURING EXPANSION FROM INFINITE AREA COMBUSTOR

 Pin =   362.6 PSIA
 CASE =                

             REACTANT                    WT FRACTION      ENERGY      TEMP
                                          (SEE NOTE)     KJ/KG-MOL      K  
 FUEL        H2O(L)                       1.0000000   -285841.390    298.000
 OXIDANT     H2O2(L)                      1.0000000   -187793.400    298.000

 O/F=    5.00000  %FUEL= 16.666667  R,EQ.RATIO= 0.579411  PHI,EQ.RATIO= 0.000000

                 CHAMBER   THROAT     EXIT
 Pinf/P            1.0000   1.8274   28.805
 P, BAR            25.000   13.681  0.86792
 T, K              866.16   757.83   391.65
 RHO, KG/CU M    7.5465 0 4.7200 0 5.7940-1
 H, KJ/KG        -7245.23 -7432.25 -8020.93
 U, KJ/KG        -7576.51 -7722.10 -8170.72
 G, KJ/KG        -15536.7 -14686.8 -11770.1
 S, KJ/(KG)(K)     9.5727   9.5727   9.5727

 M, (1/n)          21.739   21.739   21.739
 MW, MOL WT        21.739   21.739   21.739
 (dLV/dLP)t      -1.00000 -1.00000 -1.00000
 (dLV/dLT)p        1.0000   1.0000   1.0000
 Cp, KJ/(KG)(K)    1.7538   1.6991   1.5221
 GAMMAs            1.2789   1.2905   1.3356
 SON VEL,M/SEC      650.9    611.6    447.3
 MACH NUMBER        0.000    1.000    2.785

 TRANSPORT PROPERTIES (GASES ONLY)
   CONDUCTIVITY IN UNITS OF MILLIWATTS/(CM)(K)

 VISC,MILLIPOISE  0.37836  0.33718  0.18524

  WITH EQUILIBRIUM REACTIONS

 Cp, KJ/(KG)(K)    1.7538   1.6991   1.5221
 CONDUCTIVITY      0.7648   0.6483   0.3031
 PRANDTL NUMBER    0.8676   0.8837   0.9301

  WITH FROZEN REACTIONS

 Cp, KJ/(KG)(K)    1.7538   1.6991   1.5221
 CONDUCTIVITY      0.7648   0.6483   0.3031
 PRANDTL NUMBER    0.8676   0.8837   0.9301

 PERFORMANCE PARAMETERS

 Ae/At                      1.0000   4.0000
 CSTAR, M/SEC                866.0    866.0
 CF                         0.7062   1.4382
 Ivac, M/SEC                1085.5   1365.8
 Isp, M/SEC                  611.6   1245.6


 MOLE FRACTIONS

 H2O              0.73371  0.73371  0.73371
 *O2              0.26629  0.26629  0.26629

  * THERMODYNAMIC PROPERTIES FITTED TO 20000.K

    PRODUCTS WHICH WERE CONSIDERED BUT WHOSE MOLE FRACTIONS
    WERE LESS THAN 5.000000E-06 FOR ALL ASSIGNED CONDITIONS

 *H              HO2             *H2             H2O2            *O             
 *OH             O3              H2O(cr)         H2O(L)         

 NOTE. WEIGHT FRACTION OF FUEL IN TOTAL FUELS AND OF OXIDANT IN TOTAL OXIDANTS





           THEORETICAL ROCKET PERFORMANCE ASSUMING FROZEN COMPOSITION

 Pin =   362.6 PSIA
 CASE =                

             REACTANT                    WT FRACTION      ENERGY      TEMP
                                          (SEE NOTE)     KJ/KG-MOL      K  
 FUEL        H2O(L)                       1.0000000   -285841.390    298.000
 OXIDANT     H2O2(L)                      1.0000000   -187793.400    298.000

 O/F=    5.00000  %FUEL= 16.666667  R,EQ.RATIO= 0.579411  PHI,EQ.RATIO= 0.000000

                 CHAMBER   THROAT     EXIT
 Pinf/P            1.0000   1.8274   28.805
 P, BAR            25.000   13.681  0.86792
 T, K              866.16   757.83   391.65
 RHO, KG/CU M    7.5465 0 4.7200 0 5.7940-1
 H, KJ/KG        -7245.23 -7432.25 -8020.93
 U, KJ/KG        -7576.51 -7722.10 -8170.72
 G, KJ/KG        -15536.7 -14686.8 -11770.1
 S, KJ/(KG)(K)     9.5727   9.5727   9.5727

 M, (1/n)          21.739   21.739   21.739
 MW, MOL WT        21.739   21.739   21.739
 Cp, KJ/(KG)(K)    1.7538   1.6991   1.5221
 GAMMAs            1.2789   1.2905   1.3356
 SON VEL,M/SEC      650.9    611.6    447.3
 MACH NUMBER        0.000    1.000    2.785

 TRANSPORT PROPERTIES (GASES ONLY)
   CONDUCTIVITY IN UNITS OF MILLIWATTS/(CM)(K)

 VISC,MILLIPOISE  0.37836  0.33718  0.18524

  WITH FROZEN REACTIONS

 Cp, KJ/(KG)(K)    1.7538   1.6991   1.5221
 CONDUCTIVITY      0.7648   0.6483   0.3031
 PRANDTL NUMBER    0.8676   0.8837   0.9301

 PERFORMANCE PARAMETERS

 Ae/At                      1.0000   4.0000
 CSTAR, M/SEC                866.0    866.0
 CF                         0.7062   1.4382
 Ivac, M/SEC                1085.5   1365.8
 Isp, M/SEC                  611.6   1245.6

 MOLE FRACTIONS

 H2O             0.73371   *O2             0.26629

  * THERMODYNAMIC PROPERTIES FITTED TO 20000.K

    PRODUCTS WHICH WERE CONSIDERED BUT WHOSE MOLE FRACTIONS
    WERE LESS THAN 5.000000E-06 FOR ALL ASSIGNED CONDITIONS

 *H              HO2             *H2             H2O2            *O             
 *OH             O3              H2O(cr)         H2O(L)         

 NOTE. WEIGHT FRACTION OF FUEL IN TOTAL FUELS AND OF OXIDANT IN TOTAL OXIDANTS






 POINT ITN      T            H           O 
   1    1     866.159     -21.469     -12.127
 Pinf/Pt = 1.819601
   2    3     758.563     -23.898     -12.267
 Pinf/Pt = 1.827337
   2    2     757.839     -23.917     -12.268
 Pinf/Pt = 1.827389
   2    1     757.834     -23.917     -12.268
   3    4     404.559     -40.999     -13.060
   3    2     391.605     -42.211     -13.110
   3    2     391.654     -42.206     -13.110





              THEORETICAL ROCKET PERFORMANCE ASSUMING EQUILIBRIUM

           COMPOSITION DURING EXPANSION FROM INFINITE AREA COMBUSTOR

 Pin =   377.1 PSIA
 CASE =                

             REACTANT                    WT FRACTION      ENERGY      TEMP
                                          (SEE NOTE)     KJ/KG-MOL      K  
 FUEL        H2O(L)                       1.0000000   -285841.390    298.000
 OXIDANT     H2O2(L)                      1.0000000   -187793.400    298.000

 O/F=    5.00000  %FUEL= 16.666667  R,EQ.RATIO= 0.579411  PHI,EQ.RATIO= 0.000000

                 CHAMBER   THROAT     EXIT
 Pinf/P            1.0000   1.8274   28.805
 P, BAR            26.000   14.228  0.90264
 T, K              866.16   757.83   391.65
 RHO, KG/CU M    7.8484 0 4.9088 0 6.0258-1
 H, KJ/KG        -7245.23 -7432.25 -8020.93
 U, KJ/KG        -7576.51 -7722.10 -8170.72
 G, KJ/KG        -15523.7 -14675.4 -11764.2
 S, KJ/(KG)(K)     9.5577   9.5577   9.5577

 M, (1/n)          21.739   21.739   21.739
 MW, MOL WT        21.739   21.739   21.739
 (dLV/dLP)t      -1.00000 -1.00000 -1.00000
 (dLV/dLT)p        1.0000   1.0000   1.0000
 Cp, KJ/(KG)(K)    1.7538   1.6991   1.5221
 GAMMAs            1.2789   1.2905   1.3356
 SON VEL,M/SEC      650.9    611.6    447.3
 MACH NUMBER        0.000    1.000    2.785

 TRANSPORT PROPERTIES (GASES ONLY)
   CONDUCTIVITY IN UNITS OF MILLIWATTS/(CM)(K)

 VISC,MILLIPOISE  0.37836  0.33718  0.18524

  WITH EQUILIBRIUM REACTIONS

 Cp, KJ/(KG)(K)    1.7538   1.6991   1.5221
 CONDUCTIVITY      0.7648   0.6483   0.3031
 PRANDTL NUMBER    0.8676   0.8837   0.9301

  WITH FROZEN REACTIONS

 Cp, KJ/(KG)(K)    1.7538   1.6991   1.5221
 CONDUCTIVITY      0.7648   0.6483   0.3031
 PRANDTL NUMBER    0.8676   0.8837   0.9301

 PERFORMANCE PARAMETERS

 Ae/At                     1.00000   4.0000
 CSTAR, M/SEC                866.0    866.0
 CF                         0.7062   1.4382
 Ivac, M/SEC                1085.5   1365.8
 Isp, M/SEC                  611.6   1245.6


 MOLE FRACTIONS

 H2O              0.73371  0.73371  0.73371
 *O2              0.26629  0.26629  0.26629

  * THERMODYNAMIC PROPERTIES FITTED TO 20000.K

    PRODUCTS WHICH WERE CONSIDERED BUT WHOSE MOLE FRACTIONS
    WERE LESS THAN 5.000000E-06 FOR ALL ASSIGNED CONDITIONS

 *H              HO2             *H2             H2O2            *O             
 *OH             O3              H2O(cr)         H2O(L)         

 NOTE. WEIGHT FRACTION OF FUEL IN TOTAL FUELS AND OF OXIDANT IN TOTAL OXIDANTS





           THEORETICAL ROCKET PERFORMANCE ASSUMING FROZEN COMPOSITION

 Pin =   377.1 PSIA
 CASE =                

             REACTANT                    WT FRACTION      ENERGY      TEMP
                                          (SEE NOTE)     KJ/KG-MOL      K  
 FUEL        H2O(L)                       1.0000000   -285841.390    298.000
 OXIDANT     H2O2(L)                      1.0000000   -187793.400    298.000

 O/F=    5.00000  %FUEL= 16.666667  R,EQ.RATIO= 0.579411  PHI,EQ.RATIO= 0.000000

                 CHAMBER   THROAT     EXIT
 Pinf/P            1.0000   1.8274   28.805
 P, BAR            26.000   14.228  0.90263
 T, K              866.16   757.83   391.65
 RHO, KG/CU M    7.8484 0 4.9088 0 6.0258-1
 H, KJ/KG        -7245.23 -7432.25 -8020.93
 U, KJ/KG        -7576.51 -7722.10 -8170.72
 G, KJ/KG        -15523.7 -14675.4 -11764.2
 S, KJ/(KG)(K)     9.5577   9.5577   9.5577

 M, (1/n)          21.739   21.739   21.739
 MW, MOL WT        21.739   21.739   21.739
 Cp, KJ/(KG)(K)    1.7538   1.6991   1.5221
 GAMMAs            1.2789   1.2905   1.3356
 SON VEL,M/SEC      650.9    611.6    447.3
 MACH NUMBER        0.000    1.000    2.785

 TRANSPORT PROPERTIES (GASES ONLY)
   CONDUCTIVITY IN UNITS OF MILLIWATTS/(CM)(K)

 VISC,MILLIPOISE  0.37836  0.33718  0.18524

  WITH FROZEN REACTIONS

 Cp, KJ/(KG)(K)    1.7538   1.6991   1.5221
 CONDUCTIVITY      0.7648   0.6483   0.3031
 PRANDTL NUMBER    0.8676   0.8837   0.9301

 PERFORMANCE PARAMETERS

 Ae/At                     1.00000   4.0000
 CSTAR, M/SEC                866.0    866.0
 CF                         0.7062   1.4382
 Ivac, M/SEC                1085.5   1365.8
 Isp, M/SEC                  611.6   1245.6

 MOLE FRACTIONS

 H2O             0.73371   *O2             0.26629

  * THERMODYNAMIC PROPERTIES FITTED TO 20000.K

    PRODUCTS WHICH WERE CONSIDERED BUT WHOSE MOLE FRACTIONS
    WERE LESS THAN 5.000000E-06 FOR ALL ASSIGNED CONDITIONS

 *H              HO2             *H2             H2O2            *O             
 *OH             O3              H2O(cr)         H2O(L)         

 NOTE. WEIGHT FRACTION OF FUEL IN TOTAL FUELS AND OF OXIDANT IN TOTAL OXIDANTS






 POINT ITN      T            H           O 
   1    1     866.159     -21.459     -12.108
 Pinf/Pt = 1.819601
   2    3     758.563     -23.889     -12.248
 Pinf/Pt = 1.827337
   2    2     757.839     -23.908     -12.249
 Pinf/Pt = 1.827389
   2    1     757.834     -23.908     -12.249
   3    4     404.559     -40.989     -13.041
   3    2     391.605     -42.202     -13.091
   3    2     391.654     -42.197     -13.091





              THEORETICAL ROCKET PERFORMANCE ASSUMING EQUILIBRIUM

           COMPOSITION DURING EXPANSION FROM INFINITE AREA COMBUSTOR

 Pin =   391.6 PSIA
 CASE =                

             REACTANT                    WT FRACTION      ENERGY      TEMP
                                          (SEE NOTE)     KJ/KG-MOL      K  
 FUEL        H2O(L)                       1.0000000   -285841.390    298.000
 OXIDANT     H2O2(L)                      1.0000000   -187793.400    298.000

 O/F=    5.00000  %FUEL= 16.666667  R,EQ.RATIO= 0.579411  PHI,EQ.RATIO= 0.000000

                 CHAMBER   THROAT     EXIT
 Pinf/P            1.0000   1.8274   28.805
 P, BAR            27.000   14.775  0.93735
 T, K              866.16   757.83   391.65
 RHO, KG/CU M    8.1502 0 5.0976 0 6.2575-1
 H, KJ/KG        -7245.23 -7432.25 -8020.93
 U, KJ/KG        -7576.51 -7722.10 -8170.72
 G, KJ/KG        -15511.2 -14664.5 -11758.6
 S, KJ/(KG)(K)     9.5432   9.5432   9.5432

 M, (1/n)          21.739   21.739   21.739
 MW, MOL WT        21.739   21.739   21.739
 (dLV/dLP)t      -1.00000 -1.00000 -1.00000
 (dLV/dLT)p        1.0000   1.0000   1.0000
 Cp, KJ/(KG)(K)    1.7538   1.6991   1.5221
 GAMMAs            1.2789   1.2905   1.3356
 SON VEL,M/SEC      650.9    611.6    447.3
 MACH NUMBER        0.000    1.000    2.785

 TRANSPORT PROPERTIES (GASES ONLY)
   CONDUCTIVITY IN UNITS OF MILLIWATTS/(CM)(K)

 VISC,MILLIPOISE  0.37836  0.33718  0.18524

  WITH EQUILIBRIUM REACTIONS

 Cp, KJ/(KG)(K)    1.7538   1.6991   1.5221
 CONDUCTIVITY      0.7648   0.6483   0.3031
 PRANDTL NUMBER    0.8676   0.8837   0.9301

  WITH FROZEN REACTIONS

 Cp, KJ/(KG)(K)    1.7538   1.6991   1.5221
 CONDUCTIVITY      0.7648   0.6483   0.3031
 PRANDTL NUMBER    0.8676   0.8837   0.9301

 PERFORMANCE PARAMETERS

 Ae/At                      1.0000   4.0000
 CSTAR, M/SEC                866.0    866.0
 CF                         0.7062   1.4382
 Ivac, M/SEC                1085.5   1365.8
 Isp, M/SEC                  611.6   1245.6


 MOLE FRACTIONS

 H2O              0.73371  0.73371  0.73371
 *O2              0.26629  0.26629  0.26629

  * THERMODYNAMIC PROPERTIES FITTED TO 20000.K

    PRODUCTS WHICH WERE CONSIDERED BUT WHOSE MOLE FRACTIONS
    WERE LESS THAN 5.000000E-06 FOR ALL ASSIGNED CONDITIONS

 *H              HO2             *H2             H2O2            *O             
 *OH             O3              H2O(cr)         H2O(L)         

 NOTE. WEIGHT FRACTION OF FUEL IN TOTAL FUELS AND OF OXIDANT IN TOTAL OXIDANTS





           THEORETICAL ROCKET PERFORMANCE ASSUMING FROZEN COMPOSITION

 Pin =   391.6 PSIA
 CASE =                

             REACTANT                    WT FRACTION      ENERGY      TEMP
                                          (SEE NOTE)     KJ/KG-MOL      K  
 FUEL        H2O(L)                       1.0000000   -285841.390    298.000
 OXIDANT     H2O2(L)                      1.0000000   -187793.400    298.000

 O/F=    5.00000  %FUEL= 16.666667  R,EQ.RATIO= 0.579411  PHI,EQ.RATIO= 0.000000

                 CHAMBER   THROAT     EXIT
 Pinf/P            1.0000   1.8274   28.805
 P, BAR            27.000   14.775  0.93735
 T, K              866.16   757.83   391.65
 RHO, KG/CU M    8.1502 0 5.0976 0 6.2575-1
 H, KJ/KG        -7245.23 -7432.25 -8020.93
 U, KJ/KG        -7576.51 -7722.10 -8170.72
 G, KJ/KG        -15511.2 -14664.4 -11758.6
 S, KJ/(KG)(K)     9.5432   9.5432   9.5432

 M, (1/n)          21.739   21.739   21.739
 MW, MOL WT        21.739   21.739   21.739
 Cp, KJ/(KG)(K)    1.7538   1.6991   1.5221
 GAMMAs            1.2789   1.2905   1.3356
 SON VEL,M/SEC      650.9    611.6    447.3
 MACH NUMBER        0.000    1.000    2.785

 TRANSPORT PROPERTIES (GASES ONLY)
   CONDUCTIVITY IN UNITS OF MILLIWATTS/(CM)(K)

 VISC,MILLIPOISE  0.37836  0.33718  0.18524

  WITH FROZEN REACTIONS

 Cp, KJ/(KG)(K)    1.7538   1.6991   1.5221
 CONDUCTIVITY      0.7648   0.6483   0.3031
 PRANDTL NUMBER    0.8676   0.8837   0.9301

 PERFORMANCE PARAMETERS

 Ae/At                      1.0000   4.0000
 CSTAR, M/SEC                866.0    866.0
 CF                         0.7062   1.4382
 Ivac, M/SEC                1085.5   1365.8
 Isp, M/SEC                  611.6   1245.6

 MOLE FRACTIONS

 H2O             0.73371   *O2             0.26629

  * THERMODYNAMIC PROPERTIES FITTED TO 20000.K

    PRODUCTS WHICH WERE CONSIDERED BUT WHOSE MOLE FRACTIONS
    WERE LESS THAN 5.000000E-06 FOR ALL ASSIGNED CONDITIONS

 *H              HO2             *H2             H2O2            *O             
 *OH             O3              H2O(cr)         H2O(L)         

 NOTE. WEIGHT FRACTION OF FUEL IN TOTAL FUELS AND OF OXIDANT IN TOTAL OXIDANTS






 POINT ITN      T            H           O 
   1    1     866.159     -21.450     -12.090
 Pinf/Pt = 1.819601
   2    3     758.563     -23.880     -12.230
 Pinf/Pt = 1.827337
   2    2     757.839     -23.899     -12.231
 Pinf/Pt = 1.827389
   2    1     757.834     -23.899     -12.231
   3    4     404.559     -40.980     -13.023
   3    2     391.605     -42.192     -13.073
   3    2     391.654     -42.188     -13.073





              THEORETICAL ROCKET PERFORMANCE ASSUMING EQUILIBRIUM

           COMPOSITION DURING EXPANSION FROM INFINITE AREA COMBUSTOR

 Pin =   406.1 PSIA
 CASE =                

             REACTANT                    WT FRACTION      ENERGY      TEMP
                                          (SEE NOTE)     KJ/KG-MOL      K  
 FUEL        H2O(L)                       1.0000000   -285841.390    298.000
 OXIDANT     H2O2(L)                      1.0000000   -187793.400    298.000

 O/F=    5.00000  %FUEL= 16.666667  R,EQ.RATIO= 0.579411  PHI,EQ.RATIO= 0.000000

                 CHAMBER   THROAT     EXIT
 Pinf/P            1.0000   1.8274   28.805
 P, BAR            28.000   15.322  0.97207
 T, K              866.16   757.83   391.65
 RHO, KG/CU M    8.4521 0 5.2864 0 6.4893-1
 H, KJ/KG        -7245.23 -7432.25 -8020.93
 U, KJ/KG        -7576.51 -7722.10 -8170.72
 G, KJ/KG        -15499.1 -14653.9 -11753.1
 S, KJ/(KG)(K)     9.5293   9.5293   9.5293

 M, (1/n)          21.739   21.739   21.739
 MW, MOL WT        21.739   21.739   21.739
 (dLV/dLP)t      -1.00000 -1.00000 -1.00000
 (dLV/dLT)p        1.0000   1.0000   1.0000
 Cp, KJ/(KG)(K)    1.7538   1.6991   1.5221
 GAMMAs            1.2789   1.2905   1.3356
 SON VEL,M/SEC      650.9    611.6    447.3
 MACH NUMBER        0.000    1.000    2.785

 TRANSPORT PROPERTIES (GASES ONLY)
   CONDUCTIVITY IN UNITS OF MILLIWATTS/(CM)(K)

 VISC,MILLIPOISE  0.37836  0.33718  0.18524

  WITH EQUILIBRIUM REACTIONS

 Cp, KJ/(KG)(K)    1.7538   1.6991   1.5221
 CONDUCTIVITY      0.7648   0.6483   0.3031
 PRANDTL NUMBER    0.8676   0.8837   0.9301

  WITH FROZEN REACTIONS

 Cp, KJ/(KG)(K)    1.7538   1.6991   1.5221
 CONDUCTIVITY      0.7648   0.6483   0.3031
 PRANDTL NUMBER    0.8676   0.8837   0.9301

 PERFORMANCE PARAMETERS

 Ae/At                      1.0000   4.0000
 CSTAR, M/SEC                866.0    866.0
 CF                         0.7062   1.4382
 Ivac, M/SEC                1085.5   1365.8
 Isp, M/SEC                  611.6   1245.6


 MOLE FRACTIONS

 H2O              0.73371  0.73371  0.73371
 *O2              0.26629  0.26629  0.26629

  * THERMODYNAMIC PROPERTIES FITTED TO 20000.K

    PRODUCTS WHICH WERE CONSIDERED BUT WHOSE MOLE FRACTIONS
    WERE LESS THAN 5.000000E-06 FOR ALL ASSIGNED CONDITIONS

 *H              HO2             *H2             H2O2            *O             
 *OH             O3              H2O(cr)         H2O(L)         

 NOTE. WEIGHT FRACTION OF FUEL IN TOTAL FUELS AND OF OXIDANT IN TOTAL OXIDANTS





           THEORETICAL ROCKET PERFORMANCE ASSUMING FROZEN COMPOSITION

 Pin =   406.1 PSIA
 CASE =                

             REACTANT                    WT FRACTION      ENERGY      TEMP
                                          (SEE NOTE)     KJ/KG-MOL      K  
 FUEL        H2O(L)                       1.0000000   -285841.390    298.000
 OXIDANT     H2O2(L)                      1.0000000   -187793.400    298.000

 O/F=    5.00000  %FUEL= 16.666667  R,EQ.RATIO= 0.579411  PHI,EQ.RATIO= 0.000000

                 CHAMBER   THROAT     EXIT
 Pinf/P            1.0000   1.8274   28.805
 P, BAR            28.000   15.322  0.97207
 T, K              866.16   757.83   391.65
 RHO, KG/CU M    8.4521 0 5.2863 0 6.4893-1
 H, KJ/KG        -7245.23 -7432.25 -8020.93
 U, KJ/KG        -7576.51 -7722.10 -8170.72
 G, KJ/KG        -15499.1 -14653.9 -11753.1
 S, KJ/(KG)(K)     9.5293   9.5293   9.5293

 M, (1/n)          21.739   21.739   21.739
 MW, MOL WT        21.739   21.739   21.739
 Cp, KJ/(KG)(K)    1.7538   1.6991   1.5221
 GAMMAs            1.2789   1.2905   1.3356
 SON VEL,M/SEC      650.9    611.6    447.3
 MACH NUMBER        0.000    1.000    2.785

 TRANSPORT PROPERTIES (GASES ONLY)
   CONDUCTIVITY IN UNITS OF MILLIWATTS/(CM)(K)

 VISC,MILLIPOISE  0.37836  0.33718  0.18524

  WITH FROZEN REACTIONS

 Cp, KJ/(KG)(K)    1.7538   1.6991   1.5221
 CONDUCTIVITY      0.7648   0.6483   0.3031
 PRANDTL NUMBER    0.8676   0.8837   0.9301

 PERFORMANCE PARAMETERS

 Ae/At                      1.0000   4.0000
 CSTAR, M/SEC                866.0    866.0
 CF                         0.7062   1.4382
 Ivac, M/SEC                1085.5   1365.8
 Isp, M/SEC                  611.6   1245.6

 MOLE FRACTIONS

 H2O             0.73371   *O2             0.26629

  * THERMODYNAMIC PROPERTIES FITTED TO 20000.K

    PRODUCTS WHICH WERE CONSIDERED BUT WHOSE MOLE FRACTIONS
    WERE LESS THAN 5.000000E-06 FOR ALL ASSIGNED CONDITIONS

 *H              HO2             *H2             H2O2            *O             
 *OH             O3              H2O(cr)         H2O(L)         

 NOTE. WEIGHT FRACTION OF FUEL IN TOTAL FUELS AND OF OXIDANT IN TOTAL OXIDANTS






 POINT ITN      T            H           O 
   1    1     866.159     -21.442     -12.072
 Pinf/Pt = 1.819601
   2    3     758.563     -23.871     -12.212
 Pinf/Pt = 1.827337
   2    2     757.839     -23.890     -12.213
 Pinf/Pt = 1.827389
   2    1     757.834     -23.890     -12.213
   3    4     404.559     -40.971     -13.005
   3    2     391.605     -42.184     -13.056
   3    2     391.654     -42.179     -13.056





              THEORETICAL ROCKET PERFORMANCE ASSUMING EQUILIBRIUM

           COMPOSITION DURING EXPANSION FROM INFINITE AREA COMBUSTOR

 Pin =   420.6 PSIA
 CASE =                

             REACTANT                    WT FRACTION      ENERGY      TEMP
                                          (SEE NOTE)     KJ/KG-MOL      K  
 FUEL        H2O(L)                       1.0000000   -285841.390    298.000
 OXIDANT     H2O2(L)                      1.0000000   -187793.400    298.000

 O/F=    5.00000  %FUEL= 16.666667  R,EQ.RATIO= 0.579411  PHI,EQ.RATIO= 0.000000

                 CHAMBER   THROAT     EXIT
 Pinf/P            1.0000   1.8274   28.805
 P, BAR            29.000   15.870   1.0068
 T, K              866.16   757.83   391.65
 RHO, KG/CU M    8.7539 0 5.4751 0 6.7211-1
 H, KJ/KG        -7245.23 -7432.25 -8020.93
 U, KJ/KG        -7576.51 -7722.10 -8170.72
 G, KJ/KG        -15487.5 -14643.7 -11747.9
 S, KJ/(KG)(K)     9.5159   9.5159   9.5159

 M, (1/n)          21.739   21.739   21.739
 MW, MOL WT        21.739   21.739   21.739
 (dLV/dLP)t      -1.00000 -1.00000 -1.00000
 (dLV/dLT)p        1.0000   1.0000   1.0000
 Cp, KJ/(KG)(K)    1.7538   1.6991   1.5221
 GAMMAs            1.2789   1.2905   1.3356
 SON VEL,M/SEC      650.9    611.6    447.3
 MACH NUMBER        0.000    1.000    2.785

 TRANSPORT PROPERTIES (GASES ONLY)
   CONDUCTIVITY IN UNITS OF MILLIWATTS/(CM)(K)

 VISC,MILLIPOISE  0.37836  0.33718  0.18524

  WITH EQUILIBRIUM REACTIONS

 Cp, KJ/(KG)(K)    1.7538   1.6991   1.5221
 CONDUCTIVITY      0.7648   0.6483   0.3031
 PRANDTL NUMBER    0.8676   0.8837   0.9301

  WITH FROZEN REACTIONS

 Cp, KJ/(KG)(K)    1.7538   1.6991   1.5221
 CONDUCTIVITY      0.7648   0.6483   0.3031
 PRANDTL NUMBER    0.8676   0.8837   0.9301

 PERFORMANCE PARAMETERS

 Ae/At                      1.0000   4.0000
 CSTAR, M/SEC                866.0    866.0
 CF                         0.7062   1.4382
 Ivac, M/SEC                1085.5   1365.8
 Isp, M/SEC                  611.6   1245.6


 MOLE FRACTIONS

 H2O              0.73371  0.73371  0.73371
 *O2              0.26629  0.26629  0.26629

  * THERMODYNAMIC PROPERTIES FITTED TO 20000.K

    PRODUCTS WHICH WERE CONSIDERED BUT WHOSE MOLE FRACTIONS
    WERE LESS THAN 5.000000E-06 FOR ALL ASSIGNED CONDITIONS

 *H              HO2             *H2             H2O2            *O             
 *OH             O3              H2O(cr)         H2O(L)         

 NOTE. WEIGHT FRACTION OF FUEL IN TOTAL FUELS AND OF OXIDANT IN TOTAL OXIDANTS





           THEORETICAL ROCKET PERFORMANCE ASSUMING FROZEN COMPOSITION

 Pin =   420.6 PSIA
 CASE =                

             REACTANT                    WT FRACTION      ENERGY      TEMP
                                          (SEE NOTE)     KJ/KG-MOL      K  
 FUEL        H2O(L)                       1.0000000   -285841.390    298.000
 OXIDANT     H2O2(L)                      1.0000000   -187793.400    298.000

 O/F=    5.00000  %FUEL= 16.666667  R,EQ.RATIO= 0.579411  PHI,EQ.RATIO= 0.000000

                 CHAMBER   THROAT     EXIT
 Pinf/P            1.0000   1.8274   28.805
 P, BAR            29.000   15.870   1.0068
 T, K              866.16   757.83   391.65
 RHO, KG/CU M    8.7539 0 5.4751 0 6.7211-1
 H, KJ/KG        -7245.23 -7432.25 -8020.93
 U, KJ/KG        -7576.51 -7722.10 -8170.72
 G, KJ/KG        -15487.5 -14643.7 -11747.9
 S, KJ/(KG)(K)     9.5159   9.5159   9.5159

 M, (1/n)          21.739   21.739   21.739
 MW, MOL WT        21.739   21.739   21.739
 Cp, KJ/(KG)(K)    1.7538   1.6991   1.5221
 GAMMAs            1.2789   1.2905   1.3356
 SON VEL,M/SEC      650.9    611.6    447.3
 MACH NUMBER        0.000    1.000    2.785

 TRANSPORT PROPERTIES (GASES ONLY)
   CONDUCTIVITY IN UNITS OF MILLIWATTS/(CM)(K)

 VISC,MILLIPOISE  0.37836  0.33718  0.18524

  WITH FROZEN REACTIONS

 Cp, KJ/(KG)(K)    1.7538   1.6991   1.5221
 CONDUCTIVITY      0.7648   0.6483   0.3031
 PRANDTL NUMBER    0.8676   0.8837   0.9301

 PERFORMANCE PARAMETERS

 Ae/At                      1.0000   4.0000
 CSTAR, M/SEC                866.0    866.0
 CF                         0.7062   1.4382
 Ivac, M/SEC                1085.5   1365.8
 Isp, M/SEC                  611.6   1245.6

 MOLE FRACTIONS

 H2O             0.73371   *O2             0.26629

  * THERMODYNAMIC PROPERTIES FITTED TO 20000.K

    PRODUCTS WHICH WERE CONSIDERED BUT WHOSE MOLE FRACTIONS
    WERE LESS THAN 5.000000E-06 FOR ALL ASSIGNED CONDITIONS

 *H              HO2             *H2             H2O2            *O             
 *OH             O3              H2O(cr)         H2O(L)         

 NOTE. WEIGHT FRACTION OF FUEL IN TOTAL FUELS AND OF OXIDANT IN TOTAL OXIDANTS






 POINT ITN      T            H           O 
   1    1     866.159     -21.433     -12.055
 Pinf/Pt = 1.819601
   2    3     758.563     -23.863     -12.195
 Pinf/Pt = 1.827337
   2    2     757.839     -23.881     -12.196
 Pinf/Pt = 1.827389
   2    1     757.834     -23.881     -12.196
   3    4     404.559     -40.963     -12.989
   3    2     391.605     -42.175     -13.039
   3    2     391.654     -42.170     -13.039





              THEORETICAL ROCKET PERFORMANCE ASSUMING EQUILIBRIUM

           COMPOSITION DURING EXPANSION FROM INFINITE AREA COMBUSTOR

 Pin =   435.1 PSIA
 CASE =                

             REACTANT                    WT FRACTION      ENERGY      TEMP
                                          (SEE NOTE)     KJ/KG-MOL      K  
 FUEL        H2O(L)                       1.0000000   -285841.390    298.000
 OXIDANT     H2O2(L)                      1.0000000   -187793.400    298.000

 O/F=    5.00000  %FUEL= 16.666667  R,EQ.RATIO= 0.579411  PHI,EQ.RATIO= 0.000000

                 CHAMBER   THROAT     EXIT
 Pinf/P            1.0000   1.8274   28.805
 P, BAR            30.000   16.417   1.0415
 T, K              866.16   757.83   391.65
 RHO, KG/CU M    9.0558 0 5.6639 0 6.9528-1
 H, KJ/KG        -7245.23 -7432.25 -8020.93
 U, KJ/KG        -7576.51 -7722.10 -8170.72
 G, KJ/KG        -15476.3 -14633.9 -11742.8
 S, KJ/(KG)(K)     9.5029   9.5029   9.5029

 M, (1/n)          21.739   21.739   21.739
 MW, MOL WT        21.739   21.739   21.739
 (dLV/dLP)t      -1.00000 -1.00000 -1.00000
 (dLV/dLT)p        1.0000   1.0000   1.0000
 Cp, KJ/(KG)(K)    1.7538   1.6991   1.5221
 GAMMAs            1.2789   1.2905   1.3356
 SON VEL,M/SEC      650.9    611.6    447.3
 MACH NUMBER        0.000    1.000    2.785

 TRANSPORT PROPERTIES (GASES ONLY)
   CONDUCTIVITY IN UNITS OF MILLIWATTS/(CM)(K)

 VISC,MILLIPOISE  0.37836  0.33718  0.18524

  WITH EQUILIBRIUM REACTIONS

 Cp, KJ/(KG)(K)    1.7538   1.6991   1.5221
 CONDUCTIVITY      0.7648   0.6483   0.3031
 PRANDTL NUMBER    0.8676   0.8837   0.9301

  WITH FROZEN REACTIONS

 Cp, KJ/(KG)(K)    1.7538   1.6991   1.5221
 CONDUCTIVITY      0.7648   0.6483   0.3031
 PRANDTL NUMBER    0.8676   0.8837   0.9301

 PERFORMANCE PARAMETERS

 Ae/At                      1.0000   4.0000
 CSTAR, M/SEC                866.0    866.0
 CF                         0.7062   1.4382
 Ivac, M/SEC                1085.5   1365.8
 Isp, M/SEC                  611.6   1245.6


 MOLE FRACTIONS

 H2O              0.73371  0.73371  0.73371
 *O2              0.26629  0.26629  0.26629

  * THERMODYNAMIC PROPERTIES FITTED TO 20000.K

    PRODUCTS WHICH WERE CONSIDERED BUT WHOSE MOLE FRACTIONS
    WERE LESS THAN 5.000000E-06 FOR ALL ASSIGNED CONDITIONS

 *H              HO2             *H2             H2O2            *O             
 *OH             O3              H2O(cr)         H2O(L)         

 NOTE. WEIGHT FRACTION OF FUEL IN TOTAL FUELS AND OF OXIDANT IN TOTAL OXIDANTS





           THEORETICAL ROCKET PERFORMANCE ASSUMING FROZEN COMPOSITION

 Pin =   435.1 PSIA
 CASE =                

             REACTANT                    WT FRACTION      ENERGY      TEMP
                                          (SEE NOTE)     KJ/KG-MOL      K  
 FUEL        H2O(L)                       1.0000000   -285841.390    298.000
 OXIDANT     H2O2(L)                      1.0000000   -187793.400    298.000

 O/F=    5.00000  %FUEL= 16.666667  R,EQ.RATIO= 0.579411  PHI,EQ.RATIO= 0.000000

                 CHAMBER   THROAT     EXIT
 Pinf/P            1.0000   1.8274   28.805
 P, BAR            30.000   16.417   1.0415
 T, K              866.16   757.83   391.65
 RHO, KG/CU M    9.0558 0 5.6639 0 6.9528-1
 H, KJ/KG        -7245.23 -7432.25 -8020.93
 U, KJ/KG        -7576.51 -7722.10 -8170.72
 G, KJ/KG        -15476.3 -14633.9 -11742.8
 S, KJ/(KG)(K)     9.5029   9.5029   9.5029

 M, (1/n)          21.739   21.739   21.739
 MW, MOL WT        21.739   21.739   21.739
 Cp, KJ/(KG)(K)    1.7538   1.6991   1.5221
 GAMMAs            1.2789   1.2905   1.3356
 SON VEL,M/SEC      650.9    611.6    447.3
 MACH NUMBER        0.000    1.000    2.785

 TRANSPORT PROPERTIES (GASES ONLY)
   CONDUCTIVITY IN UNITS OF MILLIWATTS/(CM)(K)

 VISC,MILLIPOISE  0.37836  0.33718  0.18524

  WITH FROZEN REACTIONS

 Cp, KJ/(KG)(K)    1.7538   1.6991   1.5221
 CONDUCTIVITY      0.7648   0.6483   0.3031
 PRANDTL NUMBER    0.8676   0.8837   0.9301

 PERFORMANCE PARAMETERS

 Ae/At                      1.0000   4.0000
 CSTAR, M/SEC                866.0    866.0
 CF                         0.7062   1.4382
 Ivac, M/SEC                1085.5   1365.8
 Isp, M/SEC                  611.6   1245.6

 MOLE FRACTIONS

 H2O             0.73371   *O2             0.26629

  * THERMODYNAMIC PROPERTIES FITTED TO 20000.K

    PRODUCTS WHICH WERE CONSIDERED BUT WHOSE MOLE FRACTIONS
    WERE LESS THAN 5.000000E-06 FOR ALL ASSIGNED CONDITIONS

 *H              HO2             *H2             H2O2            *O             
 *OH             O3              H2O(cr)         H2O(L)         

 NOTE. WEIGHT FRACTION OF FUEL IN TOTAL FUELS AND OF OXIDANT IN TOTAL OXIDANTS






 POINT ITN      T            H           O 
   1    1     866.159     -21.425     -12.039
 Pinf/Pt = 1.819601
   2    3     758.563     -23.854     -12.179
 Pinf/Pt = 1.827338
   2    2     757.839     -23.873     -12.180
 Pinf/Pt = 1.827390
   2    1     757.834     -23.873     -12.180
   3    4     404.559     -40.955     -12.972
   3    2     391.605     -42.167     -13.022
   3    2     391.654     -42.162     -13.022





              THEORETICAL ROCKET PERFORMANCE ASSUMING EQUILIBRIUM

           COMPOSITION DURING EXPANSION FROM INFINITE AREA COMBUSTOR

 Pin =   449.6 PSIA
 CASE =                

             REACTANT                    WT FRACTION      ENERGY      TEMP
                                          (SEE NOTE)     KJ/KG-MOL      K  
 FUEL        H2O(L)                       1.0000000   -285841.390    298.000
 OXIDANT     H2O2(L)                      1.0000000   -187793.400    298.000

 O/F=    5.00000  %FUEL= 16.666667  R,EQ.RATIO= 0.579411  PHI,EQ.RATIO= 0.000000

                 CHAMBER   THROAT     EXIT
 Pinf/P            1.0000   1.8274   28.805
 P, BAR            31.000   16.964   1.0762
 T, K              866.16   757.83   391.65
 RHO, KG/CU M    9.3577 0 5.8527 0 7.1846-1
 H, KJ/KG        -7245.23 -7432.25 -8020.93
 U, KJ/KG        -7576.51 -7722.10 -8170.72
 G, KJ/KG        -15465.4 -14624.4 -11737.9
 S, KJ/(KG)(K)     9.4904   9.4904   9.4904

 M, (1/n)          21.739   21.739   21.739
 MW, MOL WT        21.739   21.739   21.739
 (dLV/dLP)t      -1.00000 -1.00000 -1.00000
 (dLV/dLT)p        1.0000   1.0000   1.0000
 Cp, KJ/(KG)(K)    1.7538   1.6991   1.5221
 GAMMAs            1.2789   1.2905   1.3356
 SON VEL,M/SEC      650.9    611.6    447.3
 MACH NUMBER        0.000    1.000    2.785

 TRANSPORT PROPERTIES (GASES ONLY)
   CONDUCTIVITY IN UNITS OF MILLIWATTS/(CM)(K)

 VISC,MILLIPOISE  0.37836  0.33718  0.18524

  WITH EQUILIBRIUM REACTIONS

 Cp, KJ/(KG)(K)    1.7538   1.6991   1.5221
 CONDUCTIVITY      0.7648   0.6483   0.3031
 PRANDTL NUMBER    0.8676   0.8837   0.9301

  WITH FROZEN REACTIONS

 Cp, KJ/(KG)(K)    1.7538   1.6991   1.5221
 CONDUCTIVITY      0.7648   0.6483   0.3031
 PRANDTL NUMBER    0.8676   0.8837   0.9301

 PERFORMANCE PARAMETERS

 Ae/At                      1.0000   4.0000
 CSTAR, M/SEC                866.0    866.0
 CF                         0.7062   1.4382
 Ivac, M/SEC                1085.5   1365.8
 Isp, M/SEC                  611.6   1245.6


 MOLE FRACTIONS

 H2O              0.73371  0.73371  0.73371
 *O2              0.26629  0.26629  0.26629

  * THERMODYNAMIC PROPERTIES FITTED TO 20000.K

    PRODUCTS WHICH WERE CONSIDERED BUT WHOSE MOLE FRACTIONS
    WERE LESS THAN 5.000000E-06 FOR ALL ASSIGNED CONDITIONS

 *H              HO2             *H2             H2O2            *O             
 *OH             O3              H2O(cr)         H2O(L)         

 NOTE. WEIGHT FRACTION OF FUEL IN TOTAL FUELS AND OF OXIDANT IN TOTAL OXIDANTS





           THEORETICAL ROCKET PERFORMANCE ASSUMING FROZEN COMPOSITION

 Pin =   449.6 PSIA
 CASE =                

             REACTANT                    WT FRACTION      ENERGY      TEMP
                                          (SEE NOTE)     KJ/KG-MOL      K  
 FUEL        H2O(L)                       1.0000000   -285841.390    298.000
 OXIDANT     H2O2(L)                      1.0000000   -187793.400    298.000

 O/F=    5.00000  %FUEL= 16.666667  R,EQ.RATIO= 0.579411  PHI,EQ.RATIO= 0.000000

                 CHAMBER   THROAT     EXIT
 Pinf/P            1.0000   1.8274   28.805
 P, BAR            31.000   16.964   1.0762
 T, K              866.16   757.83   391.65
 RHO, KG/CU M    9.3577 0 5.8527 0 7.1846-1
 H, KJ/KG        -7245.23 -7432.25 -8020.93
 U, KJ/KG        -7576.51 -7722.10 -8170.72
 G, KJ/KG        -15465.4 -14624.4 -11737.9
 S, KJ/(KG)(K)     9.4904   9.4904   9.4904

 M, (1/n)          21.739   21.739   21.739
 MW, MOL WT        21.739   21.739   21.739
 Cp, KJ/(KG)(K)    1.7538   1.6991   1.5221
 GAMMAs            1.2789   1.2905   1.3356
 SON VEL,M/SEC      650.9    611.6    447.3
 MACH NUMBER        0.000    1.000    2.785

 TRANSPORT PROPERTIES (GASES ONLY)
   CONDUCTIVITY IN UNITS OF MILLIWATTS/(CM)(K)

 VISC,MILLIPOISE  0.37836  0.33718  0.18524

  WITH FROZEN REACTIONS

 Cp, KJ/(KG)(K)    1.7538   1.6991   1.5221
 CONDUCTIVITY      0.7648   0.6483   0.3031
 PRANDTL NUMBER    0.8676   0.8837   0.9301

 PERFORMANCE PARAMETERS

[...]
                                          (SEE NOTE)     KJ/KG-MOL      K  
 FUEL        H2O(L)                       1.0000000   -285841.390    298.000
 OXIDANT     H2O2(L)                      1.0000000   -187793.400    298.000

 O/F=   99.00000  %FUEL=  1.000000  R,EQ.RATIO= 0.504723  PHI,EQ.RATIO= 0.000000

                 CHAMBER   THROAT     EXIT
 Pinf/P            1.0000   1.8089   27.288
 P, BAR            29.000   16.032   1.0627
 T, K             1249.77  1108.06   606.21
 RHO, KG/CU M    6.3122 0 3.9358 0 4.7689-1
 H, KJ/KG        -5624.41 -5881.06 -6716.98
 U, KJ/KG        -6083.83 -6288.39 -6939.83
 G, KJ/KG        -17923.4 -16785.5 -12682.7
 S, KJ/(KG)(K)     9.8410   9.8410   9.8410

 M, (1/n)          22.618   22.618   22.618
 MW, MOL WT        22.618   22.618   22.618
 (dLV/dLP)t      -1.00000 -1.00000 -1.00000
 (dLV/dLT)p        1.0000   1.0000   1.0000
 Cp, KJ/(KG)(K)    1.8412   1.7806   1.5473
 GAMMAs            1.2495   1.2602   1.3116
 SON VEL,M/SEC      757.7    716.5    540.6
 MACH NUMBER        0.000    1.000    2.734

 TRANSPORT PROPERTIES (GASES ONLY)
   CONDUCTIVITY IN UNITS OF MILLIWATTS/(CM)(K)

 VISC,MILLIPOISE  0.51914  0.47296  0.28765

  WITH EQUILIBRIUM REACTIONS

 Cp, KJ/(KG)(K)    1.8412   1.7806   1.5473
 CONDUCTIVITY      1.1759   1.0170   0.4977
 PRANDTL NUMBER    0.8129   0.8281   0.8943

  WITH FROZEN REACTIONS

 Cp, KJ/(KG)(K)    1.8404   1.7805   1.5473
 CONDUCTIVITY      1.1753   1.0169   0.4977
 PRANDTL NUMBER    0.8129   0.8281   0.8943

 PERFORMANCE PARAMETERS

 Ae/At                      1.0000   4.0000
 CSTAR, M/SEC               1028.4   1028.4
 CF                         0.6966   1.4373
 Ivac, M/SEC                1285.0   1629.0
 Isp, M/SEC                  716.5   1478.2


 MOLE FRACTIONS

 H2O              0.67085  0.67085  0.67085
 *OH              0.00001  0.00000  0.00000
 *O2              0.32915  0.32915  0.32915

  * THERMODYNAMIC PROPERTIES FITTED TO 20000.K

    PRODUCTS WHICH WERE CONSIDERED BUT WHOSE MOLE FRACTIONS
    WERE LESS THAN 5.000000E-06 FOR ALL ASSIGNED CONDITIONS

 *H              HO2             *H2             H2O2            *O             
 O3              H2O(cr)         H2O(L)         

 NOTE. WEIGHT FRACTION OF FUEL IN TOTAL FUELS AND OF OXIDANT IN TOTAL OXIDANTS





           THEORETICAL ROCKET PERFORMANCE ASSUMING FROZEN COMPOSITION

 Pin =   420.6 PSIA
 CASE =                

             REACTANT                    WT FRACTION      ENERGY      TEMP
                                          (SEE NOTE)     KJ/KG-MOL      K  
 FUEL        H2O(L)                       1.0000000   -285841.390    298.000
 OXIDANT     H2O2(L)                      1.0000000   -187793.400    298.000

 O/F=   99.00000  %FUEL=  1.000000  R,EQ.RATIO= 0.504723  PHI,EQ.RATIO= 0.000000

                 CHAMBER   THROAT     EXIT
 Pinf/P            1.0000   1.8089   27.288
 P, BAR            29.000   16.032   1.0627
 T, K             1249.77  1108.03   606.19
 RHO, KG/CU M    6.3122 0 3.9359 0 4.7690-1
 H, KJ/KG        -5624.41 -5881.06 -6716.96
 U, KJ/KG        -6083.83 -6288.38 -6939.80
 G, KJ/KG        -17923.4 -16785.2 -12682.5
 S, KJ/(KG)(K)     9.8410   9.8410   9.8410

 M, (1/n)          22.618   22.618   22.618
 MW, MOL WT        22.618   22.618   22.618
 Cp, KJ/(KG)(K)    1.8404   1.7805   1.5473
 GAMMAs            1.2496   1.2602   1.3116
 SON VEL,M/SEC      757.7    716.5    540.6
 MACH NUMBER        0.000    1.000    2.734

 TRANSPORT PROPERTIES (GASES ONLY)
   CONDUCTIVITY IN UNITS OF MILLIWATTS/(CM)(K)

 VISC,MILLIPOISE  0.51914  0.47295  0.28764

  WITH FROZEN REACTIONS

 Cp, KJ/(KG)(K)    1.8404   1.7805   1.5473
 CONDUCTIVITY      1.1753   1.0168   0.4977
 PRANDTL NUMBER    0.8129   0.8281   0.8943

 PERFORMANCE PARAMETERS

 Ae/At                      1.0000   4.0000
 CSTAR, M/SEC               1028.4   1028.4
 CF                         0.6966   1.4373
 Ivac, M/SEC                1285.0   1629.0
 Isp, M/SEC                  716.5   1478.2

 MOLE FRACTIONS

 H2O             0.67085   *OH             0.00001   *O2             0.32915

  * THERMODYNAMIC PROPERTIES FITTED TO 20000.K

    PRODUCTS WHICH WERE CONSIDERED BUT WHOSE MOLE FRACTIONS
    WERE LESS THAN 5.000000E-06 FOR ALL ASSIGNED CONDITIONS

 *H              HO2             *H2             H2O2            *O             
 O3              H2O(cr)         H2O(L)         

 NOTE. WEIGHT FRACTION OF FUEL IN TOTAL FUELS AND OF OXIDANT IN TOTAL OXIDANTS






 POINT ITN      T            H           O 
   1    1    1249.769     -16.709     -12.460
 Pinf/Pt = 1.801719
   2    3    1108.976     -18.217     -12.577
 Pinf/Pt = 1.808868
   2    2    1108.070     -18.228     -12.578
 Pinf/Pt = 1.808916
   2    1    1108.064     -18.228     -12.578
   3    4     621.558     -28.703     -13.180
   3    2     606.169     -29.308     -13.209
   3    1     606.213     -29.307     -13.209





              THEORETICAL ROCKET PERFORMANCE ASSUMING EQUILIBRIUM

           COMPOSITION DURING EXPANSION FROM INFINITE AREA COMBUSTOR

 Pin =   435.1 PSIA
 CASE =                

             REACTANT                    WT FRACTION      ENERGY      TEMP
                                          (SEE NOTE)     KJ/KG-MOL      K  
 FUEL        H2O(L)                       1.0000000   -285841.390    298.000
 OXIDANT     H2O2(L)                      1.0000000   -187793.400    298.000

 O/F=   99.00000  %FUEL=  1.000000  R,EQ.RATIO= 0.504723  PHI,EQ.RATIO= 0.000000

                 CHAMBER   THROAT     EXIT
 Pinf/P            1.0000   1.8089   27.288
 P, BAR            30.000   16.585   1.0994
 T, K             1249.77  1108.06   606.21
 RHO, KG/CU M    6.5299 0 4.0715 0 4.9333-1
 H, KJ/KG        -5624.41 -5881.06 -6716.98
 U, KJ/KG        -6083.83 -6288.39 -6939.83
 G, KJ/KG        -17907.8 -16771.7 -12675.2
 S, KJ/(KG)(K)     9.8285   9.8285   9.8285

 M, (1/n)          22.618   22.618   22.618
 MW, MOL WT        22.618   22.618   22.618
 (dLV/dLP)t      -1.00000 -1.00000 -1.00000
 (dLV/dLT)p        1.0000   1.0000   1.0000
 Cp, KJ/(KG)(K)    1.8412   1.7806   1.5473
 GAMMAs            1.2495   1.2602   1.3116
 SON VEL,M/SEC      757.7    716.5    540.6
 MACH NUMBER        0.000    1.000    2.734

 TRANSPORT PROPERTIES (GASES ONLY)
   CONDUCTIVITY IN UNITS OF MILLIWATTS/(CM)(K)

 VISC,MILLIPOISE  0.51914  0.47296  0.28765

  WITH EQUILIBRIUM REACTIONS

 Cp, KJ/(KG)(K)    1.8412   1.7806   1.5473
 CONDUCTIVITY      1.1759   1.0170   0.4977
 PRANDTL NUMBER    0.8129   0.8281   0.8943

  WITH FROZEN REACTIONS

 Cp, KJ/(KG)(K)    1.8404   1.7805   1.5473
 CONDUCTIVITY      1.1753   1.0169   0.4977
 PRANDTL NUMBER    0.8129   0.8281   0.8943

 PERFORMANCE PARAMETERS

 Ae/At                      1.0000   4.0000
 CSTAR, M/SEC               1028.4   1028.4
 CF                         0.6966   1.4373
 Ivac, M/SEC                1285.0   1629.0
 Isp, M/SEC                  716.5   1478.2


 MOLE FRACTIONS

 H2O              0.67085  0.67085  0.67085
 *OH              0.00001  0.00000  0.00000
 *O2              0.32915  0.32915  0.32915

  * THERMODYNAMIC PROPERTIES FITTED TO 20000.K

    PRODUCTS WHICH WERE CONSIDERED BUT WHOSE MOLE FRACTIONS
    WERE LESS THAN 5.000000E-06 FOR ALL ASSIGNED CONDITIONS

 *H              HO2             *H2             H2O2            *O             
 O3              H2O(cr)         H2O(L)         

 NOTE. WEIGHT FRACTION OF FUEL IN TOTAL FUELS AND OF OXIDANT IN TOTAL OXIDANTS





           THEORETICAL ROCKET PERFORMANCE ASSUMING FROZEN COMPOSITION

 Pin =   435.1 PSIA
 CASE =                

             REACTANT                    WT FRACTION      ENERGY      TEMP
                                          (SEE NOTE)     KJ/KG-MOL      K  
 FUEL        H2O(L)                       1.0000000   -285841.390    298.000
 OXIDANT     H2O2(L)                      1.0000000   -187793.400    298.000

 O/F=   99.00000  %FUEL=  1.000000  R,EQ.RATIO= 0.504723  PHI,EQ.RATIO= 0.000000

                 CHAMBER   THROAT     EXIT
 Pinf/P            1.0000   1.8089   27.288
 P, BAR            30.000   16.584   1.0994
 T, K             1249.77  1108.03   606.19
 RHO, KG/CU M    6.5299 0 4.0716 0 4.9335-1
 H, KJ/KG        -5624.41 -5881.06 -6716.96
 U, KJ/KG        -6083.83 -6288.38 -6939.80
 G, KJ/KG        -17907.8 -16771.4 -12674.9
 S, KJ/(KG)(K)     9.8285   9.8285   9.8285

 M, (1/n)          22.618   22.618   22.618
 MW, MOL WT        22.618   22.618   22.618
 Cp, KJ/(KG)(K)    1.8404   1.7805   1.5473
 GAMMAs            1.2496   1.2602   1.3116
 SON VEL,M/SEC      757.7    716.5    540.6
 MACH NUMBER        0.000    1.000    2.734

 TRANSPORT PROPERTIES (GASES ONLY)
   CONDUCTIVITY IN UNITS OF MILLIWATTS/(CM)(K)

 VISC,MILLIPOISE  0.51914  0.47295  0.28764

  WITH FROZEN REACTIONS

 Cp, KJ/(KG)(K)    1.8404   1.7805   1.5473
 CONDUCTIVITY      1.1753   1.0168   0.4977
 PRANDTL NUMBER    0.8129   0.8281   0.8943

 PERFORMANCE PARAMETERS

 Ae/At                      1.0000   4.0000
 CSTAR, M/SEC               1028.4   1028.4
 CF                         0.6966   1.4373
 Ivac, M/SEC                1285.0   1629.0
 Isp, M/SEC                  716.5   1478.2

 MOLE FRACTIONS

 H2O             0.67085   *OH             0.00001   *O2             0.32915

  * THERMODYNAMIC PROPERTIES FITTED TO 20000.K

    PRODUCTS WHICH WERE CONSIDERED BUT WHOSE MOLE FRACTIONS
    WERE LESS THAN 5.000000E-06 FOR ALL ASSIGNED CONDITIONS

 *H              HO2             *H2             H2O2            *O             
 O3              H2O(cr)         H2O(L)         

 NOTE. WEIGHT FRACTION OF FUEL IN TOTAL FUELS AND OF OXIDANT IN TOTAL OXIDANTS






 POINT ITN      T            H           O 
   1    1    1249.769     -16.700     -12.443
 Pinf/Pt = 1.801719
   2    3    1108.976     -18.209     -12.561
 Pinf/Pt = 1.808868
   2    2    1108.070     -18.220     -12.562
 Pinf/Pt = 1.808916
   2    1    1108.064     -18.220     -12.562
   3    4     621.558     -28.695     -13.164
   3    2     606.168     -29.300     -13.193
   3    1     606.213     -29.298     -13.193





              THEORETICAL ROCKET PERFORMANCE ASSUMING EQUILIBRIUM

           COMPOSITION DURING EXPANSION FROM INFINITE AREA COMBUSTOR

 Pin =   449.6 PSIA
 CASE =                

             REACTANT                    WT FRACTION      ENERGY      TEMP
                                          (SEE NOTE)     KJ/KG-MOL      K  
 FUEL        H2O(L)                       1.0000000   -285841.390    298.000
 OXIDANT     H2O2(L)                      1.0000000   -187793.400    298.000

 O/F=   99.00000  %FUEL=  1.000000  R,EQ.RATIO= 0.504723  PHI,EQ.RATIO= 0.000000

                 CHAMBER   THROAT     EXIT
 Pinf/P            1.0000   1.8089   27.288
 P, BAR            31.000   17.137   1.1360
 T, K             1249.77  1108.06   606.21
 RHO, KG/CU M    6.7476 0 4.2072 0 5.0978-1
 H, KJ/KG        -5624.41 -5881.06 -6716.98
 U, KJ/KG        -6083.83 -6288.39 -6939.83
 G, KJ/KG        -17892.7 -16758.3 -12667.9
 S, KJ/(KG)(K)     9.8165   9.8165   9.8165

 M, (1/n)          22.618   22.618   22.618
 MW, MOL WT        22.618   22.618   22.618
 (dLV/dLP)t      -1.00000 -1.00000 -1.00000
 (dLV/dLT)p        1.0000   1.0000   1.0000
 Cp, KJ/(KG)(K)    1.8412   1.7806   1.5473
 GAMMAs            1.2495   1.2602   1.3116
 SON VEL,M/SEC      757.7    716.5    540.6
 MACH NUMBER        0.000    1.000    2.734

 TRANSPORT PROPERTIES (GASES ONLY)
   CONDUCTIVITY IN UNITS OF MILLIWATTS/(CM)(K)

 VISC,MILLIPOISE  0.51914  0.47296  0.28765

  WITH EQUILIBRIUM REACTIONS

 Cp, KJ/(KG)(K)    1.8412   1.7806   1.5473
 CONDUCTIVITY      1.1759   1.0170   0.4977
 PRANDTL NUMBER    0.8129   0.8281   0.8943

  WITH FROZEN REACTIONS

 Cp, KJ/(KG)(K)    1.8404   1.7805   1.5473
 CONDUCTIVITY      1.1753   1.0169   0.4977
 PRANDTL NUMBER    0.8129   0.8281   0.8943

 PERFORMANCE PARAMETERS

 Ae/At                      1.0000   4.0000
 CSTAR, M/SEC               1028.4   1028.4
 CF                         0.6966   1.4373
 Ivac, M/SEC                1285.0   1629.0
 Isp, M/SEC                  716.5   1478.2


 MOLE FRACTIONS

 H2O              0.67085  0.67085  0.67085
 *OH              0.00001  0.00000  0.00000
 *O2              0.32915  0.32915  0.32915

  * THERMODYNAMIC PROPERTIES FITTED TO 20000.K

    PRODUCTS WHICH WERE CONSIDERED BUT WHOSE MOLE FRACTIONS
    WERE LESS THAN 5.000000E-06 FOR ALL ASSIGNED CONDITIONS

 *H              HO2             *H2             H2O2            *O             
 O3              H2O(cr)         H2O(L)         

 NOTE. WEIGHT FRACTION OF FUEL IN TOTAL FUELS AND OF OXIDANT IN TOTAL OXIDANTS





           THEORETICAL ROCKET PERFORMANCE ASSUMING FROZEN COMPOSITION

 Pin =   449.6 PSIA
 CASE =                

             REACTANT                    WT FRACTION      ENERGY      TEMP
                                          (SEE NOTE)     KJ/KG-MOL      K  
 FUEL        H2O(L)                       1.0000000   -285841.390    298.000
 OXIDANT     H2O2(L)                      1.0000000   -187793.400    298.000

 O/F=   99.00000  %FUEL=  1.000000  R,EQ.RATIO= 0.504723  PHI,EQ.RATIO= 0.000000

                 CHAMBER   THROAT     EXIT
 Pinf/P            1.0000   1.8089   27.288
 P, BAR            31.000   17.137   1.1360
 T, K             1249.77  1108.03   606.19
 RHO, KG/CU M    6.7476 0 4.2073 0 5.0979-1
 H, KJ/KG        -5624.41 -5881.06 -6716.96
 U, KJ/KG        -6083.83 -6288.38 -6939.80
 G, KJ/KG        -17892.7 -16758.1 -12667.6
 S, KJ/(KG)(K)     9.8165   9.8165   9.8165

 M, (1/n)          22.618   22.618   22.618
 MW, MOL WT        22.618   22.618   22.618
 Cp, KJ/(KG)(K)    1.8404   1.7805   1.5473
 GAMMAs            1.2496   1.2602   1.3116
 SON VEL,M/SEC      757.7    716.5    540.6
 MACH NUMBER        0.000    1.000    2.734

 TRANSPORT PROPERTIES (GASES ONLY)
   CONDUCTIVITY IN UNITS OF MILLIWATTS/(CM)(K)

 VISC,MILLIPOISE  0.51914  0.47295  0.28764

  WITH FROZEN REACTIONS

 Cp, KJ/(KG)(K)    1.8404   1.7805   1.5473
 CONDUCTIVITY      1.1753   1.0168   0.4977
 PRANDTL NUMBER    0.8129   0.8281   0.8943

 PERFORMANCE PARAMETERS

 Ae/At                      1.0000   4.0000
 CSTAR, M/SEC               1028.4   1028.4
 CF                         0.6966   1.4373
 Ivac, M/SEC                1285.0   1629.0
 Isp, M/SEC                  716.5   1478.2

 MOLE FRACTIONS

 H2O             0.67085   *OH             0.00001   *O2             0.32915

  * THERMODYNAMIC PROPERTIES FITTED TO 20000.K

    PRODUCTS WHICH WERE CONSIDERED BUT WHOSE MOLE FRACTIONS
    WERE LESS THAN 5.000000E-06 FOR ALL ASSIGNED CONDITIONS

 *H              HO2             *H2             H2O2            *O             
 O3              H2O(cr)         H2O(L)         

 NOTE. WEIGHT FRACTION OF FUEL IN TOTAL FUELS AND OF OXIDANT IN TOTAL OXIDANTS






 POINT ITN      T            H           O 
   1    1    1249.770     -16.692     -12.427
 Pinf/Pt = 1.801720
   2    3    1108.976     -18.201     -12.545
 Pinf/Pt = 1.808869
   2    2    1108.070     -18.212     -12.546
 Pinf/Pt = 1.808916
   2    1    1108.064     -18.212     -12.546
   3    4     621.558     -28.687     -13.148
   3    2     606.168     -29.292     -13.177
   3    1     606.213     -29.291     -13.177





              THEORETICAL ROCKET PERFORMANCE ASSUMING EQUILIBRIUM

           COMPOSITION DURING EXPANSION FROM INFINITE AREA COMBUSTOR

 Pin =   464.1 PSIA
 CASE =                

             REACTANT                    WT FRACTION      ENERGY      TEMP
                                          (SEE NOTE)     KJ/KG-MOL      K  
 FUEL        H2O(L)                       1.0000000   -285841.390    298.000
 OXIDANT     H2O2(L)                      1.0000000   -187793.400    298.000

 O/F=   99.00000  %FUEL=  1.000000  R,EQ.RATIO= 0.504723  PHI,EQ.RATIO= 0.000000

                 CHAMBER   THROAT     EXIT
 Pinf/P            1.0000   1.8089   27.288
 P, BAR            32.000   17.690   1.1727
 T, K             1249.77  1108.06   606.21
 RHO, KG/CU M    6.9652 0 4.3429 0 5.2622-1
 H, KJ/KG        -5624.41 -5881.06 -6716.98
 U, KJ/KG        -6083.83 -6288.39 -6939.83
 G, KJ/KG        -17878.2 -16745.4 -12660.8
 S, KJ/(KG)(K)     9.8048   9.8048   9.8048

 M, (1/n)          22.618   22.618   22.618
 MW, MOL WT        22.618   22.618   22.618
 (dLV/dLP)t      -1.00000 -1.00000 -1.00000
 (dLV/dLT)p        1.0000   1.0000   1.0000
 Cp, KJ/(KG)(K)    1.8412   1.7806   1.5473
 GAMMAs            1.2495   1.2602   1.3116
 SON VEL,M/SEC      757.7    716.5    540.6
 MACH NUMBER        0.000    1.000    2.734

 TRANSPORT PROPERTIES (GASES ONLY)
   CONDUCTIVITY IN UNITS OF MILLIWATTS/(CM)(K)

 VISC,MILLIPOISE  0.51914  0.47296  0.28765

  WITH EQUILIBRIUM REACTIONS

 Cp, KJ/(KG)(K)    1.8412   1.7806   1.5473
 CONDUCTIVITY      1.1759   1.0170   0.4977
 PRANDTL NUMBER    0.8129   0.8281   0.8943

  WITH FROZEN REACTIONS

 Cp, KJ/(KG)(K)    1.8404   1.7805   1.5473
 CONDUCTIVITY      1.1753   1.0169   0.4977
 PRANDTL NUMBER    0.8129   0.8281   0.8943

 PERFORMANCE PARAMETERS

 Ae/At                      1.0000   4.0000
 CSTAR, M/SEC               1028.4   1028.4
 CF                         0.6966   1.4373
 Ivac, M/SEC                1285.0   1629.0
 Isp, M/SEC                  716.5   1478.2


 MOLE FRACTIONS

 H2O              0.67085  0.67085  0.67085
 *OH              0.00001  0.00000  0.00000
 *O2              0.32915  0.32915  0.32915

  * THERMODYNAMIC PROPERTIES FITTED TO 20000.K

    PRODUCTS WHICH WERE CONSIDERED BUT WHOSE MOLE FRACTIONS
    WERE LESS THAN 5.000000E-06 FOR ALL ASSIGNED CONDITIONS

 *H              HO2             *H2             H2O2            *O             
 O3              H2O(cr)         H2O(L)         

 NOTE. WEIGHT FRACTION OF FUEL IN TOTAL FUELS AND OF OXIDANT IN TOTAL OXIDANTS





           THEORETICAL ROCKET PERFORMANCE ASSUMING FROZEN COMPOSITION

 Pin =   464.1 PSIA
 CASE =                

             REACTANT                    WT FRACTION      ENERGY      TEMP
                                          (SEE NOTE)     KJ/KG-MOL      K  
 FUEL        H2O(L)                       1.0000000   -285841.390    298.000
 OXIDANT     H2O2(L)                      1.0000000   -187793.400    298.000

 O/F=   99.00000  %FUEL=  1.000000  R,EQ.RATIO= 0.504723  PHI,EQ.RATIO= 0.000000

                 CHAMBER   THROAT     EXIT
 Pinf/P            1.0000   1.8089   27.288
 P, BAR            32.000   17.690   1.1727
 T, K             1249.77  1108.03   606.19
 RHO, KG/CU M    6.9652 0 4.3430 0 5.2624-1
 H, KJ/KG        -5624.41 -5881.06 -6716.96
 U, KJ/KG        -6083.83 -6288.38 -6939.80
 G, KJ/KG        -17878.2 -16745.1 -12660.5
 S, KJ/(KG)(K)     9.8048   9.8048   9.8048

 M, (1/n)          22.618   22.618   22.618
 MW, MOL WT        22.618   22.618   22.618
 Cp, KJ/(KG)(K)    1.8404   1.7805   1.5473
 GAMMAs            1.2496   1.2602   1.3116
 SON VEL,M/SEC      757.7    716.5    540.6
 MACH NUMBER        0.000    1.000    2.734

 TRANSPORT PROPERTIES (GASES ONLY)
   CONDUCTIVITY IN UNITS OF MILLIWATTS/(CM)(K)

 VISC,MILLIPOISE  0.51914  0.47295  0.28764

  WITH FROZEN REACTIONS

 Cp, KJ/(KG)(K)    1.8404   1.7805   1.5473
 CONDUCTIVITY      1.1753   1.0168   0.4977
 PRANDTL NUMBER    0.8129   0.8281   0.8943

 PERFORMANCE PARAMETERS

 Ae/At                      1.0000   4.0000
 CSTAR, M/SEC               1028.4   1028.4
 CF                         0.6966   1.4373
 Ivac, M/SEC                1285.0   1629.0
 Isp, M/SEC                  716.5   1478.2

 MOLE FRACTIONS

 H2O             0.67085   *OH             0.00001   *O2             0.32915

  * THERMODYNAMIC PROPERTIES FITTED TO 20000.K

    PRODUCTS WHICH WERE CONSIDERED BUT WHOSE MOLE FRACTIONS
    WERE LESS THAN 5.000000E-06 FOR ALL ASSIGNED CONDITIONS

 *H              HO2             *H2             H2O2            *O             
 O3              H2O(cr)         H2O(L)         

 NOTE. WEIGHT FRACTION OF FUEL IN TOTAL FUELS AND OF OXIDANT IN TOTAL OXIDANTS



