
 *******************************************************************************

         NASA-GLENN CHEMICAL EQUILIBRIUM PROGRAM CEA2, MAY 21, 2004
                   BY  BONNIE MCBRIDE AND SANFORD GORDON
      REFS: NASA RP-1311, PART I, 1994 AND NASA RP-1311, PART II, 1996

 *******************************************************************************



 prob
 o/f=4,5,6,7,8,9 rocket equilibrium frozen nfz=1 tcest,k=3800 p,bar=1,10,20,30,40
 ,50,60,70 sup,ae/at=4
 react
   oxid=H2O2(L) wt=100 t,k=298
   fuel=H2O(L) wt=100 t,k=298
 output
      siunits
     plot p t rho h m mw cp gam pip mach aeat cf ivac isp o/f
 end

 OPTIONS: TP=F  HP=F  SP=F  TV=F  UV=F  SV=F  DETN=F  SHOCK=F  REFL=F  INCD=F
 RKT=T  FROZ=T  EQL=T  IONS=F  SIUNIT=T  DEBUGF=F  SHKDBG=F  DETDBG=F  TRNSPT=F

 TRACE= 0.00E+00  S/R= 0.000000E+00  H/R= 0.000000E+00  U/R= 0.000000E+00

 Pc,BAR =     1.000000    10.000000    20.000000    30.000000    40.000000    50.000000    60.000000

 Pc,BAR =    70.000000

 Pc/P =

 SUBSONIC AREA RATIOS =

 SUPERSONIC AREA RATIOS =     4.0000

 NFZ=  1  Mdot/Ac= 0.000000E+00  Ac/At= 0.000000E+00

    REACTANT          WT.FRAC   (ENERGY/R),K   TEMP,K  DENSITY
        EXPLODED FORMULA
 O: H2O2(L)          1.000000  -0.225862E+05   298.00  0.0000
          H  2.00000  O  2.00000
 F: H2O(L)           1.000000  -0.343786E+05   298.00  0.0000
          H  2.00000  O  1.00000

  SPECIES BEING CONSIDERED IN THIS SYSTEM
 (CONDENSED PHASE MAY HAVE NAME LISTED SEVERAL TIMES)
  LAST thermo.inp UPDATE:    9/09/04

  g 6/97  *H               g 4/02  HO2              tpis78  *H2            
  g 8/89  H2O              g 6/99  H2O2             g 5/97  *O             
  g 4/02  *OH              tpis89  *O2              g 8/01  O3             
  g11/99  H2O(cr)          g 8/01  H2O(L)           g 8/01  H2O(L)         

 O/F =   4.000000

                       EFFECTIVE FUEL     EFFECTIVE OXIDANT        MIXTURE
 ENTHALPY                  h(2)/R              h(1)/R               h0/R
 (KG-MOL)(K)/KG       -0.19083035E+04     -0.66401406E+03     -0.91287194E+03

 KG-FORM.WT./KG             bi(2)               bi(1)               b0i
  *H                   0.11101687E+00      0.58798142E-01      0.69241888E-01
  *O                   0.55508435E-01      0.58798142E-01      0.58140201E-01

 POINT ITN      T            H           O 
   1   10     784.212     -23.940     -13.660
 Pinf/Pt = 1.824496
   2    3     684.399     -26.698     -13.809
 Pinf/Pt = 1.832146
   2    2     683.741     -26.719     -13.810
 Pinf/Pt = 1.832196
   2    1     683.736     -26.719     -13.810
   3    4     360.926     -46.111     -14.673
   3    2     348.934     -47.523     -14.730
   3    2     348.982     -47.518     -14.730





              THEORETICAL ROCKET PERFORMANCE ASSUMING EQUILIBRIUM

           COMPOSITION DURING EXPANSION FROM INFINITE AREA COMBUSTOR

 Pin =    14.5 PSIA
 CASE =                

             REACTANT                    WT FRACTION      ENERGY      TEMP
                                          (SEE NOTE)     KJ/KG-MOL      K  
 OXIDANT     H2O2(L)                      1.0000000   -187793.400    298.000
 FUEL        H2O(L)                       1.0000000   -285841.390    298.000

 O/F=    4.00000  %FUEL= 20.000000  R,EQ.RATIO= 0.595473  PHI,EQ.RATIO= 0.000000

                 CHAMBER   THROAT     EXIT
 Pinf/P            1.0000   1.8322   29.143
 P, BAR            1.0000  0.54579  0.03431
 T, K              784.21   683.74   348.98
 RHO, KG/CU M    3.3067-1 2.0700-1 2.5497-2
 H, KJ/KG        -7590.08 -7761.26 -8295.25
 U, KJ/KG        -7892.50 -8024.93 -8429.83
 G, KJ/KG        -15986.7 -15082.1 -12031.8
 S, KJ/(KG)(K)    10.7071  10.7071  10.7071

 M, (1/n)          21.561   21.561   21.561
 (dLV/dLP)t      -1.00000 -1.00000 -1.00000
 (dLV/dLT)p        1.0000   1.0000   1.0000
 Cp, KJ/(KG)(K)    1.7295   1.6778   1.5219
 GAMMAs            1.2870   1.2984   1.3394
 SON VEL,M/SEC      623.9    585.1    424.6
 MACH NUMBER        0.000    1.000    2.797

 PERFORMANCE PARAMETERS

 Ae/At                      1.0000   4.0000
 CSTAR, M/SEC                825.6    825.6
 CF                         0.7087   1.4384
 Ivac, M/SEC                1035.7   1300.9
 Isp, M/SEC                  585.1   1187.6


 MOLE FRACTIONS

 H2O              0.74645  0.74645  0.74645
 *O2              0.25355  0.25355  0.25355

  * THERMODYNAMIC PROPERTIES FITTED TO 20000.K

    PRODUCTS WHICH WERE CONSIDERED BUT WHOSE MOLE FRACTIONS
    WERE LESS THAN 5.000000E-06 FOR ALL ASSIGNED CONDITIONS

 *H              HO2             *H2             H2O2            *O             
 *OH             O3              H2O(cr)         H2O(L)         

 NOTE. WEIGHT FRACTION OF FUEL IN TOTAL FUELS AND OF OXIDANT IN TOTAL OXIDANTS





           THEORETICAL ROCKET PERFORMANCE ASSUMING FROZEN COMPOSITION

 Pin =    14.5 PSIA
 CASE =                

             REACTANT                    WT FRACTION      ENERGY      TEMP
                                          (SEE NOTE)     KJ/KG-MOL      K  
 OXIDANT     H2O2(L)                      1.0000000   -187793.400    298.000
 FUEL        H2O(L)                       1.0000000   -285841.390    298.000

 O/F=    4.00000  %FUEL= 20.000000  R,EQ.RATIO= 0.595473  PHI,EQ.RATIO= 0.000000

                 CHAMBER   THROAT     EXIT
 Pinf/P            1.0000   1.8322   29.143
 P, BAR            1.0000  0.54579  0.03431
 T, K              784.21   683.74   348.98
 RHO, KG/CU M    3.3067-1 2.0700-1 2.5497-2
 H, KJ/KG        -7590.08 -7761.26 -8295.25
 U, KJ/KG        -7892.50 -8024.93 -8429.83
 G, KJ/KG        -15986.7 -15082.1 -12031.8
 S, KJ/(KG)(K)    10.7071  10.7071  10.7071

 M, (1/n)          21.561   21.561   21.561
 Cp, KJ/(KG)(K)    1.7295   1.6778   1.5219
 GAMMAs            1.2870   1.2984   1.3394
 SON VEL,M/SEC      623.9    585.1    424.6
 MACH NUMBER        0.000    1.000    2.797

 PERFORMANCE PARAMETERS

 Ae/At                      1.0000   4.0000
 CSTAR, M/SEC                825.6    825.6
 CF                         0.7087   1.4384
 Ivac, M/SEC                1035.7   1300.9
 Isp, M/SEC                  585.1   1187.6

 MOLE FRACTIONS

 H2O             0.74645   *O2             0.25355

  * THERMODYNAMIC PROPERTIES FITTED TO 20000.K

    PRODUCTS WHICH WERE CONSIDERED BUT WHOSE MOLE FRACTIONS
    WERE LESS THAN 5.000000E-06 FOR ALL ASSIGNED CONDITIONS

 *H              HO2             *H2             H2O2            *O             
 *OH             O3              H2O(cr)         H2O(L)         

 NOTE. WEIGHT FRACTION OF FUEL IN TOTAL FUELS AND OF OXIDANT IN TOTAL OXIDANTS






 POINT ITN      T            H           O 
   1    1     784.212     -23.364     -12.508
 Pinf/Pt = 1.824496
   2    3     684.399     -26.123     -12.657
 Pinf/Pt = 1.832146
   2    2     683.741     -26.144     -12.658
 Pinf/Pt = 1.832196
   2    1     683.736     -26.144     -12.658
   3    4     360.926     -45.536     -13.522
   3    2     348.934     -46.948     -13.579
   3    2     348.982     -46.942     -13.579





              THEORETICAL ROCKET PERFORMANCE ASSUMING EQUILIBRIUM

           COMPOSITION DURING EXPANSION FROM INFINITE AREA COMBUSTOR

 Pin =   145.0 PSIA
 CASE =                

             REACTANT                    WT FRACTION      ENERGY      TEMP
                                          (SEE NOTE)     KJ/KG-MOL      K  
 OXIDANT     H2O2(L)                      1.0000000   -187793.400    298.000
 FUEL        H2O(L)                       1.0000000   -285841.390    298.000

 O/F=    4.00000  %FUEL= 20.000000  R,EQ.RATIO= 0.595473  PHI,EQ.RATIO= 0.000000

                 CHAMBER   THROAT     EXIT
 Pinf/P            1.0000   1.8322   29.143
 P, BAR            10.000   5.4579  0.34313
 T, K              784.21   683.74   348.98
 RHO, KG/CU M    3.3067 0 2.0700 0 2.5497-1
 H, KJ/KG        -7590.08 -7761.26 -8295.25
 U, KJ/KG        -7892.50 -8024.93 -8429.83
 G, KJ/KG        -15290.4 -14475.0 -11722.0
 S, KJ/(KG)(K)     9.8192   9.8192   9.8192

 M, (1/n)          21.561   21.561   21.561
 (dLV/dLP)t      -1.00000 -1.00000 -1.00000
 (dLV/dLT)p        1.0000   1.0000   1.0000
 Cp, KJ/(KG)(K)    1.7295   1.6778   1.5219
 GAMMAs            1.2870   1.2984   1.3394
 SON VEL,M/SEC      623.9    585.1    424.6
 MACH NUMBER        0.000    1.000    2.797

 PERFORMANCE PARAMETERS

 Ae/At                      1.0000   4.0000
 CSTAR, M/SEC                825.6    825.6
 CF                         0.7087   1.4384
 Ivac, M/SEC                1035.7   1300.9
 Isp, M/SEC                  585.1   1187.6


 MOLE FRACTIONS

 H2O              0.74645  0.74645  0.74645
 *O2              0.25355  0.25355  0.25355

  * THERMODYNAMIC PROPERTIES FITTED TO 20000.K

    PRODUCTS WHICH WERE CONSIDERED BUT WHOSE MOLE FRACTIONS
    WERE LESS THAN 5.000000E-06 FOR ALL ASSIGNED CONDITIONS

 *H              HO2             *H2             H2O2            *O             
 *OH             O3              H2O(cr)         H2O(L)         

 NOTE. WEIGHT FRACTION OF FUEL IN TOTAL FUELS AND OF OXIDANT IN TOTAL OXIDANTS





           THEORETICAL ROCKET PERFORMANCE ASSUMING FROZEN COMPOSITION

 Pin =   145.0 PSIA
 CASE =                

             REACTANT                    WT FRACTION      ENERGY      TEMP
                                          (SEE NOTE)     KJ/KG-MOL      K  
 OXIDANT     H2O2(L)                      1.0000000   -187793.400    298.000
 FUEL        H2O(L)                       1.0000000   -285841.390    298.000

 O/F=    4.00000  %FUEL= 20.000000  R,EQ.RATIO= 0.595473  PHI,EQ.RATIO= 0.000000

                 CHAMBER   THROAT     EXIT
 Pinf/P            1.0000   1.8322   29.143
 P, BAR            10.000   5.4579  0.34313
 T, K              784.21   683.74   348.98
 RHO, KG/CU M    3.3067 0 2.0700 0 2.5497-1
 H, KJ/KG        -7590.08 -7761.26 -8295.25
 U, KJ/KG        -7892.50 -8024.93 -8429.83
 G, KJ/KG        -15290.4 -14475.0 -11722.0
 S, KJ/(KG)(K)     9.8192   9.8192   9.8192

 M, (1/n)          21.561   21.561   21.561
 Cp, KJ/(KG)(K)    1.7295   1.6778   1.5219
 GAMMAs            1.2870   1.2984   1.3394
 SON VEL,M/SEC      623.9    585.1    424.6
 MACH NUMBER        0.000    1.000    2.797

 PERFORMANCE PARAMETERS

 Ae/At                      1.0000   4.0000
 CSTAR, M/SEC                825.6    825.6
 CF                         0.7087   1.4384
 Ivac, M/SEC                1035.7   1300.9
 Isp, M/SEC                  585.1   1187.6

 MOLE FRACTIONS

 H2O             0.74645   *O2             0.25355

  * THERMODYNAMIC PROPERTIES FITTED TO 20000.K

    PRODUCTS WHICH WERE CONSIDERED BUT WHOSE MOLE FRACTIONS
    WERE LESS THAN 5.000000E-06 FOR ALL ASSIGNED CONDITIONS

 *H              HO2             *H2             H2O2            *O             
 *OH             O3              H2O(cr)         H2O(L)         

 NOTE. WEIGHT FRACTION OF FUEL IN TOTAL FUELS AND OF OXIDANT IN TOTAL OXIDANTS






 POINT ITN      T            H           O 
   1    1     784.212     -23.191     -12.162
 Pinf/Pt = 1.824496
   2    3     684.399     -25.949     -12.311
 Pinf/Pt = 1.832146
   2    2     683.741     -25.970     -12.312
 Pinf/Pt = 1.832196
   2    1     683.736     -25.970     -12.312
   3    4     360.926     -45.362     -13.175
   3    2     348.934     -46.774     -13.232
 ADD  H2O(L)         
   3    2     355.263     -46.037     -13.235
   3    2     355.698     -45.983     -13.227





              THEORETICAL ROCKET PERFORMANCE ASSUMING EQUILIBRIUM

           COMPOSITION DURING EXPANSION FROM INFINITE AREA COMBUSTOR

 Pin =   290.1 PSIA
 CASE =                

             REACTANT                    WT FRACTION      ENERGY      TEMP
                                          (SEE NOTE)     KJ/KG-MOL      K  
 OXIDANT     H2O2(L)                      1.0000000   -187793.400    298.000
 FUEL        H2O(L)                       1.0000000   -285841.390    298.000

 O/F=    4.00000  %FUEL= 20.000000  R,EQ.RATIO= 0.595473  PHI,EQ.RATIO= 0.000000

                 CHAMBER   THROAT     EXIT
 Pinf/P            1.0000   1.8322   28.670
 P, BAR            20.000   10.916  0.69760
 T, K              784.21   683.74   355.70
 RHO, KG/CU M    6.6134 0 4.1400 0 5.1071-1
 H, KJ/KG        -7590.08 -7761.26 -8293.10
 U, KJ/KG        -7892.50 -8024.93 -8429.70
 G, KJ/KG        -15080.8 -14292.2 -11690.7
 S, KJ/(KG)(K)     9.5519   9.5519   9.5519

 M, (1/n)          21.561   21.561   21.651
 MW, MOL WT        21.561   21.561   21.561
 (dLV/dLP)t      -1.00000 -1.00000 -3.92754
 (dLV/dLT)p        1.0000   1.0000  42.1865
 Cp, KJ/(KG)(K)    1.7295   1.6778 224.0466
 GAMMAs            1.2870   1.2984   1.1401
 SON VEL,M/SEC      623.9    585.1    394.6
 MACH NUMBER        0.000    1.000    3.005

 PERFORMANCE PARAMETERS

 Ae/At                      1.0000   4.0000
 CSTAR, M/SEC                825.6    825.6
 CF                         0.7087   1.4362
 Ivac, M/SEC                1035.7   1301.0
 Isp, M/SEC                  585.1   1185.8


 MOLE FRACTIONS

 H2O              0.74645  0.74645  0.74227
 *O2              0.25355  0.25355  0.25355
 H2O(L)           0.00000  0.00000  0.00419

  * THERMODYNAMIC PROPERTIES FITTED TO 20000.K

    PRODUCTS WHICH WERE CONSIDERED BUT WHOSE MOLE FRACTIONS
    WERE LESS THAN 5.000000E-06 FOR ALL ASSIGNED CONDITIONS

 *H              HO2             *H2             H2O2            *O             
 *OH             O3              H2O(cr)        

 NOTE. WEIGHT FRACTION OF FUEL IN TOTAL FUELS AND OF OXIDANT IN TOTAL OXIDANTS





           THEORETICAL ROCKET PERFORMANCE ASSUMING FROZEN COMPOSITION

 Pin =   290.1 PSIA
 CASE =                

             REACTANT                    WT FRACTION      ENERGY      TEMP
                                          (SEE NOTE)     KJ/KG-MOL      K  
 OXIDANT     H2O2(L)                      1.0000000   -187793.400    298.000
 FUEL        H2O(L)                       1.0000000   -285841.390    298.000

 O/F=    4.00000  %FUEL= 20.000000  R,EQ.RATIO= 0.595473  PHI,EQ.RATIO= 0.000000

                 CHAMBER   THROAT     EXIT
 Pinf/P            1.0000   1.8322   29.143
 P, BAR            20.000   10.916  0.68626
 T, K              784.21   683.74   348.98
 RHO, KG/CU M    6.6134 0 4.1400 0 5.0993-1
 H, KJ/KG        -7590.08 -7761.26 -8295.25
 U, KJ/KG        -7892.50 -8024.93 -8429.83
 G, KJ/KG        -15080.8 -14292.2 -11628.7
 S, KJ/(KG)(K)     9.5519   9.5519   9.5519

 M, (1/n)          21.561   21.561   21.561
 MW, MOL WT        21.561   21.561   21.561
 Cp, KJ/(KG)(K)    1.7295   1.6778   1.5219
 GAMMAs            1.2870   1.2984   1.3394
 SON VEL,M/SEC      623.9    585.1    424.6
 MACH NUMBER        0.000    1.000    2.797

 PERFORMANCE PARAMETERS

 Ae/At                     1.00000   4.0000
 CSTAR, M/SEC                825.6    825.6
 CF                         0.7087   1.4384
 Ivac, M/SEC                1035.7   1300.9
 Isp, M/SEC                  585.1   1187.6

 MOLE FRACTIONS

 H2O             0.74645   *O2             0.25355

  * THERMODYNAMIC PROPERTIES FITTED TO 20000.K

    PRODUCTS WHICH WERE CONSIDERED BUT WHOSE MOLE FRACTIONS
    WERE LESS THAN 5.000000E-06 FOR ALL ASSIGNED CONDITIONS

 *H              HO2             *H2             H2O2            *O             
 *OH             O3              H2O(cr)        

 NOTE. WEIGHT FRACTION OF FUEL IN TOTAL FUELS AND OF OXIDANT IN TOTAL OXIDANTS






 POINT ITN      T            H           O 
   1    1     784.212     -23.090     -11.959
 Pinf/Pt = 1.824496
   2    3     684.399     -25.848     -12.108
 Pinf/Pt = 1.832146
   2    2     683.741     -25.869     -12.109
 Pinf/Pt = 1.832196
   2    1     683.736     -25.869     -12.109
   3    4     360.926     -45.261     -12.972
 ADD  H2O(L)         
   3    2     369.478     -44.336     -12.977
   3    3     366.939     -44.632     -13.017
   3    2     366.946     -44.631     -13.017





              THEORETICAL ROCKET PERFORMANCE ASSUMING EQUILIBRIUM

           COMPOSITION DURING EXPANSION FROM INFINITE AREA COMBUSTOR

 Pin =   435.1 PSIA
 CASE =                

             REACTANT                    WT FRACTION      ENERGY      TEMP
                                          (SEE NOTE)     KJ/KG-MOL      K  
 OXIDANT     H2O2(L)                      1.0000000   -187793.400    298.000
 FUEL        H2O(L)                       1.0000000   -285841.390    298.000

 O/F=    4.00000  %FUEL= 20.000000  R,EQ.RATIO= 0.595473  PHI,EQ.RATIO= 0.000000

                 CHAMBER   THROAT     EXIT
 Pinf/P            1.0000   1.8322   27.936
 P, BAR            30.000   16.374   1.0739
 T, K              784.21   683.74   366.95
 RHO, KG/CU M    9.9201 0 6.2099 0 7.6779-1
 H, KJ/KG        -7590.08 -7761.26 -8289.96
 U, KJ/KG        -7892.50 -8024.93 -8429.83
 G, KJ/KG        -14958.2 -14185.3 -11737.6
 S, KJ/(KG)(K)     9.3955   9.3955   9.3955

 M, (1/n)          21.561   21.561   21.813
 MW, MOL WT        21.561   21.561   21.561
 (dLV/dLP)t      -1.00000 -1.00000 -3.89836
 (dLV/dLT)p        1.0000   1.0000  40.0803
 Cp, KJ/(KG)(K)    1.7295   1.6778 202.4020
 GAMMAs            1.2870   1.2984   1.1453
 SON VEL,M/SEC      623.9    585.1    400.2
 MACH NUMBER        0.000    1.000    2.956

 PERFORMANCE PARAMETERS

 Ae/At                      1.0000   4.0000
 CSTAR, M/SEC                825.6    825.6
 CF                         0.7087   1.4330
 Ivac, M/SEC                1035.7   1301.3
 Isp, M/SEC                  585.1   1183.1


 MOLE FRACTIONS

 H2O              0.74645  0.74645  0.73487
 *O2              0.25355  0.25355  0.25355
 H2O(L)           0.00000  0.00000  0.01158

  * THERMODYNAMIC PROPERTIES FITTED TO 20000.K

    PRODUCTS WHICH WERE CONSIDERED BUT WHOSE MOLE FRACTIONS
    WERE LESS THAN 5.000000E-06 FOR ALL ASSIGNED CONDITIONS

 *H              HO2             *H2             H2O2            *O             
 *OH             O3              H2O(cr)        

 NOTE. WEIGHT FRACTION OF FUEL IN TOTAL FUELS AND OF OXIDANT IN TOTAL OXIDANTS





           THEORETICAL ROCKET PERFORMANCE ASSUMING FROZEN COMPOSITION

 Pin =   435.1 PSIA
 CASE =                

             REACTANT                    WT FRACTION      ENERGY      TEMP
                                          (SEE NOTE)     KJ/KG-MOL      K  
 OXIDANT     H2O2(L)                      1.0000000   -187793.400    298.000
 FUEL        H2O(L)                       1.0000000   -285841.390    298.000

 O/F=    4.00000  %FUEL= 20.000000  R,EQ.RATIO= 0.595473  PHI,EQ.RATIO= 0.000000

                 CHAMBER   THROAT     EXIT
 Pinf/P            1.0000   1.8322   29.143
 P, BAR            30.000   16.374   1.0294
 T, K              784.21   683.74   348.98
 RHO, KG/CU M    9.9201 0 6.2099 0 7.6490-1
 H, KJ/KG        -7590.08 -7761.26 -8295.25
 U, KJ/KG        -7892.50 -8024.93 -8429.83
 G, KJ/KG        -14958.2 -14185.3 -11574.1
 S, KJ/(KG)(K)     9.3955   9.3955   9.3955

 M, (1/n)          21.561   21.561   21.561
 MW, MOL WT        21.561   21.561   21.561
 Cp, KJ/(KG)(K)    1.7295   1.6778   1.5219
 GAMMAs            1.2870   1.2984   1.3394
 SON VEL,M/SEC      623.9    585.1    424.6
 MACH NUMBER        0.000    1.000    2.797

 PERFORMANCE PARAMETERS

 Ae/At                      1.0000   4.0000
 CSTAR, M/SEC                825.6    825.6
 CF                         0.7087   1.4384
 Ivac, M/SEC                1035.7   1300.9
 Isp, M/SEC                  585.1   1187.6

 MOLE FRACTIONS

 H2O             0.74645   *O2             0.25355

  * THERMODYNAMIC PROPERTIES FITTED TO 20000.K

    PRODUCTS WHICH WERE CONSIDERED BUT WHOSE MOLE FRACTIONS
    WERE LESS THAN 5.000000E-06 FOR ALL ASSIGNED CONDITIONS

 *H              HO2             *H2             H2O2            *O             
 *OH             O3              H2O(cr)        

 NOTE. WEIGHT FRACTION OF FUEL IN TOTAL FUELS AND OF OXIDANT IN TOTAL OXIDANTS






 POINT ITN      T            H           O 
   1    1     784.212     -23.018     -11.815
 Pinf/Pt = 1.824496
   2    3     684.399     -25.776     -11.964
 Pinf/Pt = 1.832146
   2    2     683.741     -25.797     -11.965
 Pinf/Pt = 1.832196
   2    1     683.736     -25.797     -11.965
   3    4     360.926     -45.189     -12.829
 ADD  H2O(L)         
   3    2     377.576     -43.428     -12.837
   3    0     377.574     -43.428     -12.837
   3    3     375.438     -43.666     -12.869
   3    2     375.442     -43.665     -12.869





              THEORETICAL ROCKET PERFORMANCE ASSUMING EQUILIBRIUM

           COMPOSITION DURING EXPANSION FROM INFINITE AREA COMBUSTOR

 Pin =   580.2 PSIA
 CASE =                

             REACTANT                    WT FRACTION      ENERGY      TEMP
                                          (SEE NOTE)     KJ/KG-MOL      K  
 OXIDANT     H2O2(L)                      1.0000000   -187793.400    298.000
 FUEL        H2O(L)                       1.0000000   -285841.390    298.000

 O/F=    4.00000  %FUEL= 20.000000  R,EQ.RATIO= 0.595473  PHI,EQ.RATIO= 0.000000

                 CHAMBER   THROAT     EXIT
 Pinf/P            1.0000   1.8322   27.429
 P, BAR            40.000   21.832   1.4583
 T, K              784.21   683.74   375.44
 RHO, KG/CU M    1.3227 1 8.2799 0 1.0252 0
 H, KJ/KG        -7590.08 -7761.26 -8287.98
 U, KJ/KG        -7892.50 -8024.93 -8430.22
 G, KJ/KG        -14871.2 -14109.5 -11773.8
 S, KJ/(KG)(K)     9.2846   9.2846   9.2846

 M, (1/n)          21.561   21.561   21.945
 MW, MOL WT        21.561   21.561   21.561
 (dLV/dLP)t      -1.00000 -1.00000 -3.87500
 (dLV/dLT)p        1.0000   1.0000  38.5602
 Cp, KJ/(KG)(K)    1.7295   1.6778 187.4828
 GAMMAs            1.2870   1.2984   1.1492
 SON VEL,M/SEC      623.9    585.1    404.3
 MACH NUMBER        0.000    1.000    2.922

 PERFORMANCE PARAMETERS

 Ae/At                      1.0000   4.0000
 CSTAR, M/SEC                825.6    825.6
 CF                         0.7087   1.4309
 Ivac, M/SEC                1035.7   1301.8
 Isp, M/SEC                  585.1   1181.4


 MOLE FRACTIONS

 H2O              0.74645  0.74645  0.72895
 *O2              0.25355  0.25355  0.25355
 H2O(L)           0.00000  0.00000  0.01751

  * THERMODYNAMIC PROPERTIES FITTED TO 20000.K

    PRODUCTS WHICH WERE CONSIDERED BUT WHOSE MOLE FRACTIONS
    WERE LESS THAN 5.000000E-06 FOR ALL ASSIGNED CONDITIONS

 *H              HO2             *H2             H2O2            *O             
 *OH             O3              H2O(cr)        

 NOTE. WEIGHT FRACTION OF FUEL IN TOTAL FUELS AND OF OXIDANT IN TOTAL OXIDANTS





           THEORETICAL ROCKET PERFORMANCE ASSUMING FROZEN COMPOSITION

 Pin =   580.2 PSIA
 CASE =                

             REACTANT                    WT FRACTION      ENERGY      TEMP
                                          (SEE NOTE)     KJ/KG-MOL      K  
 OXIDANT     H2O2(L)                      1.0000000   -187793.400    298.000
 FUEL        H2O(L)                       1.0000000   -285841.390    298.000

 O/F=    4.00000  %FUEL= 20.000000  R,EQ.RATIO= 0.595473  PHI,EQ.RATIO= 0.000000

                 CHAMBER   THROAT     EXIT
 Pinf/P            1.0000   1.8322   29.143
 P, BAR            40.000   21.832   1.3725
 T, K              784.21   683.74   348.98
 RHO, KG/CU M    1.3227 1 8.2799 0 1.0199 0
 H, KJ/KG        -7590.08 -7761.26 -8295.25
 U, KJ/KG        -7892.50 -8024.93 -8429.83
 G, KJ/KG        -14871.2 -14109.5 -11535.4
 S, KJ/(KG)(K)     9.2846   9.2846   9.2846

 M, (1/n)          21.561   21.561   21.561
 MW, MOL WT        21.561   21.561   21.561
 Cp, KJ/(KG)(K)    1.7295   1.6778   1.5219
 GAMMAs            1.2870   1.2984   1.3394
 SON VEL,M/SEC      623.9    585.1    424.6
 MACH NUMBER        0.000    1.000    2.797

 PERFORMANCE PARAMETERS

 Ae/At                      1.0000   4.0000
 CSTAR, M/SEC                825.6    825.6
 CF                         0.7087   1.4384
 Ivac, M/SEC                1035.7   1300.9
 Isp, M/SEC                  585.1   1187.6

 MOLE FRACTIONS

 H2O             0.74645   *O2             0.25355

  * THERMODYNAMIC PROPERTIES FITTED TO 20000.K

    PRODUCTS WHICH WERE CONSIDERED BUT WHOSE MOLE FRACTIONS
    WERE LESS THAN 5.000000E-06 FOR ALL ASSIGNED CONDITIONS

 *H              HO2             *H2             H2O2            *O             
 *OH             O3              H2O(cr)        

 NOTE. WEIGHT FRACTION OF FUEL IN TOTAL FUELS AND OF OXIDANT IN TOTAL OXIDANTS






 POINT ITN      T            H           O 
   1    1     784.212     -22.962     -11.704
 Pinf/Pt = 1.824496
   2    3     684.399     -25.720     -11.853
 Pinf/Pt = 1.832146
   2    2     683.741     -25.741     -11.854
 Pinf/Pt = 1.832196
   2    1     683.736     -25.741     -11.854
   3    4     360.926     -45.133     -12.717
 ADD  H2O(L)         
   3    2     384.151     -42.720     -12.729
   3    0     384.149     -42.720     -12.729
   3    3     382.354     -42.913     -12.755
   3    2     382.357     -42.912     -12.755





              THEORETICAL ROCKET PERFORMANCE ASSUMING EQUILIBRIUM

           COMPOSITION DURING EXPANSION FROM INFINITE AREA COMBUSTOR

 Pin =   725.2 PSIA
 CASE =                

             REACTANT                    WT FRACTION      ENERGY      TEMP
                                          (SEE NOTE)     KJ/KG-MOL      K  
 OXIDANT     H2O2(L)                      1.0000000   -187793.400    298.000
 FUEL        H2O(L)                       1.0000000   -285841.390    298.000

 O/F=    4.00000  %FUEL= 20.000000  R,EQ.RATIO= 0.595473  PHI,EQ.RATIO= 0.000000

                 CHAMBER   THROAT     EXIT
 Pinf/P            1.0000   1.8322   27.046
 P, BAR            50.000   27.290   1.8487
 T, K              784.21   683.74   382.36
 RHO, KG/CU M    1.6533 1 1.0350 1 1.2827 0
 H, KJ/KG        -7590.08 -7761.26 -8286.61
 U, KJ/KG        -7892.50 -8024.93 -8430.74
 G, KJ/KG        -14803.7 -14050.6 -11803.7
 S, KJ/(KG)(K)     9.1985   9.1985   9.1985

 M, (1/n)          21.561   21.561   22.058
 MW, MOL WT        21.561   21.561   21.561
 (dLV/dLP)t      -1.00000 -1.00000 -3.85512
 (dLV/dLT)p        1.0000   1.0000  37.3657
 Cp, KJ/(KG)(K)    1.7295   1.6778 176.1704
 GAMMAs            1.2870   1.2984   1.1523
 SON VEL,M/SEC      623.9    585.1    407.5
 MACH NUMBER        0.000    1.000    2.896

 PERFORMANCE PARAMETERS

 Ae/At                      1.0000   4.0000
 CSTAR, M/SEC                825.6    825.6
 CF                         0.7087   1.4295
 Ivac, M/SEC                1035.7   1302.4
 Isp, M/SEC                  585.1   1180.3


 MOLE FRACTIONS

 H2O              0.74645  0.74645  0.72391
 *O2              0.25355  0.25355  0.25355
 H2O(L)           0.00000  0.00000  0.02255

  * THERMODYNAMIC PROPERTIES FITTED TO 20000.K

    PRODUCTS WHICH WERE CONSIDERED BUT WHOSE MOLE FRACTIONS
    WERE LESS THAN 5.000000E-06 FOR ALL ASSIGNED CONDITIONS

 *H              HO2             *H2             H2O2            *O             
 *OH             O3              H2O(cr)        

 NOTE. WEIGHT FRACTION OF FUEL IN TOTAL FUELS AND OF OXIDANT IN TOTAL OXIDANTS





           THEORETICAL ROCKET PERFORMANCE ASSUMING FROZEN COMPOSITION

 Pin =   725.2 PSIA
 CASE =                

             REACTANT                    WT FRACTION      ENERGY      TEMP
                                          (SEE NOTE)     KJ/KG-MOL      K  
 OXIDANT     H2O2(L)                      1.0000000   -187793.400    298.000
 FUEL        H2O(L)                       1.0000000   -285841.390    298.000

 O/F=    4.00000  %FUEL= 20.000000  R,EQ.RATIO= 0.595473  PHI,EQ.RATIO= 0.000000

                 CHAMBER   THROAT     EXIT
 Pinf/P            1.0000   1.8322   29.143
 P, BAR            50.000   27.290   1.7157
 T, K              784.21   683.74   348.98
 RHO, KG/CU M    1.6533 1 1.0350 1 1.2748 0
 H, KJ/KG        -7590.08 -7761.26 -8295.25
 U, KJ/KG        -7892.50 -8024.93 -8429.83
 G, KJ/KG        -14803.7 -14050.6 -11505.4
 S, KJ/(KG)(K)     9.1985   9.1985   9.1985

 M, (1/n)          21.561   21.561   21.561
 MW, MOL WT        21.561   21.561   21.561
 Cp, KJ/(KG)(K)    1.7295   1.6778   1.5219
 GAMMAs            1.2870   1.2984   1.3394
 SON VEL,M/SEC      623.9    585.1    424.6
 MACH NUMBER        0.000    1.000    2.797

 PERFORMANCE PARAMETERS

 Ae/At                      1.0000   4.0000
 CSTAR, M/SEC                825.6    825.6
 CF                         0.7087   1.4384
 Ivac, M/SEC                1035.7   1300.9
 Isp, M/SEC                  585.1   1187.6

 MOLE FRACTIONS

 H2O             0.74645   *O2             0.25355

  * THERMODYNAMIC PROPERTIES FITTED TO 20000.K

    PRODUCTS WHICH WERE CONSIDERED BUT WHOSE MOLE FRACTIONS
    WERE LESS THAN 5.000000E-06 FOR ALL ASSIGNED CONDITIONS

 *H              HO2             *H2             H2O2            *O             
 *OH             O3              H2O(cr)        

 NOTE. WEIGHT FRACTION OF FUEL IN TOTAL FUELS AND OF OXIDANT IN TOTAL OXIDANTS






 POINT ITN      T            H           O 
   1    1     784.212     -22.916     -11.613
 Pinf/Pt = 1.824496
   2    3     684.399     -25.675     -11.762
 Pinf/Pt = 1.832146
   2    2     683.741     -25.696     -11.763
 Pinf/Pt = 1.832196
   2    1     683.736     -25.696     -11.763
   3    4     360.926     -45.088     -12.626
 ADD  H2O(L)         
   3    3     389.728     -42.139     -12.641
   3    1     389.725     -42.139     -12.641
   3    2     388.229     -42.295     -12.662
   3    1     388.231     -42.294     -12.662





              THEORETICAL ROCKET PERFORMANCE ASSUMING EQUILIBRIUM

           COMPOSITION DURING EXPANSION FROM INFINITE AREA COMBUSTOR

 Pin =   870.2 PSIA
 CASE =                

             REACTANT                    WT FRACTION      ENERGY      TEMP
                                          (SEE NOTE)     KJ/KG-MOL      K  
 OXIDANT     H2O2(L)                      1.0000000   -187793.400    298.000
 FUEL        H2O(L)                       1.0000000   -285841.390    298.000

 O/F=    4.00000  %FUEL= 20.000000  R,EQ.RATIO= 0.595473  PHI,EQ.RATIO= 0.000000

                 CHAMBER   THROAT     EXIT
 Pinf/P            1.0000   1.8322   26.739
 P, BAR            60.000   32.748   2.2439
 T, K              784.21   683.74   388.23
 RHO, KG/CU M    1.9840 1 1.2420 1 1.5403 0
 H, KJ/KG        -7590.08 -7761.26 -8285.63
 U, KJ/KG        -7892.50 -8024.93 -8431.31
 G, KJ/KG        -14748.5 -14002.6 -11829.5
 S, KJ/(KG)(K)     9.1282   9.1282   9.1282

 M, (1/n)          21.561   21.561   22.159
 MW, MOL WT        21.561   21.561   21.561
 (dLV/dLP)t      -1.00000 -1.00000 -3.83760
 (dLV/dLT)p        1.0000   1.0000  36.3787
 Cp, KJ/(KG)(K)    1.7295   1.6778 167.0975
 GAMMAs            1.2870   1.2984   1.1549
 SON VEL,M/SEC      623.9    585.1    410.2
 MACH NUMBER        0.000    1.000    2.875

 PERFORMANCE PARAMETERS

 Ae/At                      1.0000   4.0000
 CSTAR, M/SEC                825.6    825.6
 CF                         0.7087   1.4285
 Ivac, M/SEC                1035.7   1303.0
 Isp, M/SEC                  585.1   1179.4


 MOLE FRACTIONS

 H2O              0.74645  0.74645  0.71946
 *O2              0.25355  0.25355  0.25355
 H2O(L)           0.00000  0.00000  0.02699

  * THERMODYNAMIC PROPERTIES FITTED TO 20000.K

    PRODUCTS WHICH WERE CONSIDERED BUT WHOSE MOLE FRACTIONS
    WERE LESS THAN 5.000000E-06 FOR ALL ASSIGNED CONDITIONS

 *H              HO2             *H2             H2O2            *O             
 *OH             O3              H2O(cr)        

 NOTE. WEIGHT FRACTION OF FUEL IN TOTAL FUELS AND OF OXIDANT IN TOTAL OXIDANTS





           THEORETICAL ROCKET PERFORMANCE ASSUMING FROZEN COMPOSITION

 Pin =   870.2 PSIA
 CASE =                

             REACTANT                    WT FRACTION      ENERGY      TEMP
                                          (SEE NOTE)     KJ/KG-MOL      K  
 OXIDANT     H2O2(L)                      1.0000000   -187793.400    298.000
 FUEL        H2O(L)                       1.0000000   -285841.390    298.000

 O/F=    4.00000  %FUEL= 20.000000  R,EQ.RATIO= 0.595473  PHI,EQ.RATIO= 0.000000

                 CHAMBER   THROAT     EXIT
 Pinf/P            1.0000   1.8322   29.143
 P, BAR            60.000   32.748   2.0588
 T, K              784.21   683.74   348.98
 RHO, KG/CU M    1.9840 1 1.2420 1 1.5298 0
 H, KJ/KG        -7590.08 -7761.26 -8295.25
 U, KJ/KG        -7892.50 -8024.93 -8429.83
 G, KJ/KG        -14748.5 -14002.6 -11480.8
 S, KJ/(KG)(K)     9.1282   9.1282   9.1282

 M, (1/n)          21.561   21.561   21.561
 MW, MOL WT        21.561   21.561   21.561
 Cp, KJ/(KG)(K)    1.7295   1.6778   1.5219
 GAMMAs            1.2870   1.2984   1.3394
 SON VEL,M/SEC      623.9    585.1    424.6
 MACH NUMBER        0.000    1.000    2.797

 PERFORMANCE PARAMETERS

 Ae/At                      1.0000   4.0000
 CSTAR, M/SEC                825.6    825.6
 CF                         0.7087   1.4384
 Ivac, M/SEC                1035.7   1300.9
 Isp, M/SEC                  585.1   1187.6

 MOLE FRACTIONS

 H2O             0.74645   *O2             0.25355

  * THERMODYNAMIC PROPERTIES FITTED TO 20000.K

    PRODUCTS WHICH WERE CONSIDERED BUT WHOSE MOLE FRACTIONS
    WERE LESS THAN 5.000000E-06 FOR ALL ASSIGNED CONDITIONS

 *H              HO2             *H2             H2O2            *O             
 *OH             O3              H2O(cr)        

 NOTE. WEIGHT FRACTION OF FUEL IN TOTAL FUELS AND OF OXIDANT IN TOTAL OXIDANTS






 POINT ITN      T            H           O 
   1    1     784.212     -22.878     -11.535
 Pinf/Pt = 1.824496
   2    3     684.399     -25.636     -11.684
 Pinf/Pt = 1.832146
   2    2     683.741     -25.657     -11.686
 Pinf/Pt = 1.832196
   2    1     683.736     -25.657     -11.686
   3    4     360.926     -45.049     -12.549
 ADD  H2O(L)         
   3    3     394.595     -41.645     -12.567
   3    1     394.591     -41.646     -12.567
   3    2     393.361     -41.770     -12.584





              THEORETICAL ROCKET PERFORMANCE ASSUMING EQUILIBRIUM

           COMPOSITION DURING EXPANSION FROM INFINITE AREA COMBUSTOR

 Pin =  1015.3 PSIA
 CASE =                

             REACTANT                    WT FRACTION      ENERGY      TEMP
                                          (SEE NOTE)     KJ/KG-MOL      K  
 OXIDANT     H2O2(L)                      1.0000000   -187793.400    298.000
 FUEL        H2O(L)                       1.0000000   -285841.390    298.000

 O/F=    4.00000  %FUEL= 20.000000  R,EQ.RATIO= 0.595473  PHI,EQ.RATIO= 0.000000

                 CHAMBER   THROAT     EXIT
 Pinf/P            1.0000   1.8322   26.487
 P, BAR            70.000   38.206   2.6428
 T, K              784.21   683.74   393.36
 RHO, KG/CU M    2.3147 1 1.4490 1 1.7979 0
 H, KJ/KG        -7590.08 -7761.26 -8284.92
 U, KJ/KG        -7892.50 -8024.93 -8431.91
 G, KJ/KG        -14701.9 -13961.9 -11852.2
 S, KJ/(KG)(K)     9.0688   9.0688   9.0688

 M, (1/n)          21.561   21.561   22.250
 MW, MOL WT        21.561   21.561   21.561
 (dLV/dLP)t      -1.00000 -1.00000 -3.82180
 (dLV/dLT)p        1.0000   1.0000  35.5359
 Cp, KJ/(KG)(K)    1.7295   1.6778 159.5467
 GAMMAs            1.2870   1.2984   1.1572
 SON VEL,M/SEC      623.9    585.1    412.4
 MACH NUMBER        0.000    1.000    2.858

 PERFORMANCE PARAMETERS

 Ae/At                      1.0000   4.0000
 CSTAR, M/SEC                825.6    825.6
 CF                         0.7087   1.4278
 Ivac, M/SEC                1035.7   1303.5
 Isp, M/SEC                  585.1   1178.8


 MOLE FRACTIONS

 H2O              0.74645  0.74645  0.71546
 *O2              0.25355  0.25355  0.25355
 H2O(L)           0.00000  0.00000  0.03100

  * THERMODYNAMIC PROPERTIES FITTED TO 20000.K

    PRODUCTS WHICH WERE CONSIDERED BUT WHOSE MOLE FRACTIONS
    WERE LESS THAN 5.000000E-06 FOR ALL ASSIGNED CONDITIONS

 *H              HO2             *H2             H2O2            *O             
 *OH             O3              H2O(cr)        

 NOTE. WEIGHT FRACTION OF FUEL IN TOTAL FUELS AND OF OXIDANT IN TOTAL OXIDANTS





           THEORETICAL ROCKET PERFORMANCE ASSUMING FROZEN COMPOSITION

 Pin =  1015.3 PSIA
 CASE =                

             REACTANT                    WT FRACTION      ENERGY      TEMP
                                          (SEE NOTE)     KJ/KG-MOL      K  
 OXIDANT     H2O2(L)                      1.0000000   -187793.400    298.000
 FUEL        H2O(L)                       1.0000000   -285841.390    298.000

 O/F=    4.00000  %FUEL= 20.000000  R,EQ.RATIO= 0.595473  PHI,EQ.RATIO= 0.000000

                 CHAMBER   THROAT     EXIT
 Pinf/P            1.0000   1.8322   29.143
 P, BAR            70.000   38.206   2.4019
 T, K              784.21   683.74   348.98
 RHO, KG/CU M    2.3147 1 1.4490 1 1.7848 0
 H, KJ/KG        -7590.08 -7761.26 -8295.25
 U, KJ/KG        -7892.50 -8024.93 -8429.83
 G, KJ/KG        -14701.9 -13961.9 -11460.1
 S, KJ/(KG)(K)     9.0688   9.0688   9.0688

 M, (1/n)          21.561   21.561   21.561
 MW, MOL WT        21.561   21.561   21.561
 Cp, KJ/(KG)(K)    1.7295   1.6778   1.5219
 GAMMAs            1.2870   1.2984   1.3394
 SON VEL,M/SEC      623.9    585.1    424.6
 MACH NUMBER        0.000    1.000    2.797

 PERFORMANCE PARAMETERS

 Ae/At                      1.0000   4.0000
 CSTAR, M/SEC                825.6    825.6
 CF                         0.7087   1.4384
 Ivac, M/SEC                1035.7   1300.9
 Isp, M/SEC                  585.1   1187.6

 MOLE FRACTIONS

 H2O             0.74645   *O2             0.25355

  * THERMODYNAMIC PROPERTIES FITTED TO 20000.K

    PRODUCTS WHICH WERE CONSIDERED BUT WHOSE MOLE FRACTIONS
    WERE LESS THAN 5.000000E-06 FOR ALL ASSIGNED CONDITIONS

 *H              HO2             *H2             H2O2            *O             
 *OH             O3              H2O(cr)        

 NOTE. WEIGHT FRACTION OF FUEL IN TOTAL FUELS AND OF OXIDANT IN TOTAL OXIDANTS






 O/F =   5.000000

                       EFFECTIVE FUEL     EFFECTIVE OXIDANT        MIXTURE
 ENTHALPY                  h(2)/R              h(1)/R               h0/R
 (KG-MOL)(K)/KG       -0.19083035E+04     -0.66401406E+03     -0.87139563E+03

 KG-FORM.WT./KG             bi(2)               bi(1)               b0i
  *H                   0.11101687E+00      0.58798142E-01      0.67501264E-01
  *O                   0.55508435E-01      0.58798142E-01      0.58249858E-01

 POINT ITN      T            H           O 
   1    3     866.159     -22.283     -13.756
 Pinf/Pt = 1.819601
   2    3     758.563     -24.713     -13.896
 Pinf/Pt = 1.827338
   2    2     757.839     -24.732     -13.897
 Pinf/Pt = 1.827390
   2    1     757.834     -24.732     -13.897
   3    4     404.559     -41.813     -14.689
   3    2     391.605     -43.025     -14.739
   3    2     391.654     -43.021     -14.739





              THEORETICAL ROCKET PERFORMANCE ASSUMING EQUILIBRIUM

           COMPOSITION DURING EXPANSION FROM INFINITE AREA COMBUSTOR

 Pin =    14.5 PSIA
 CASE =                

             REACTANT                    WT FRACTION      ENERGY      TEMP
                                          (SEE NOTE)     KJ/KG-MOL      K  
 OXIDANT     H2O2(L)                      1.0000000   -187793.400    298.000
 FUEL        H2O(L)                       1.0000000   -285841.390    298.000

 O/F=    5.00000  %FUEL= 16.666667  R,EQ.RATIO= 0.579411  PHI,EQ.RATIO= 0.000000

                 CHAMBER   THROAT     EXIT
 Pinf/P            1.0000   1.8274   28.805
 P, BAR            1.0000  0.54723  0.03472
 T, K              866.16   757.83   391.65
 RHO, KG/CU M    3.0186-1 1.8880-1 2.3176-2
 H, KJ/KG        -7245.23 -7432.25 -8020.93
 U, KJ/KG        -7576.51 -7722.10 -8170.72
 G, KJ/KG        -16603.0 -15619.7 -12252.3
 S, KJ/(KG)(K)    10.8038  10.8038  10.8038

 M, (1/n)          21.739   21.739   21.739
 MW, MOL WT        21.739   21.739   21.739
 (dLV/dLP)t      -1.00000 -1.00000 -1.00000
 (dLV/dLT)p        1.0000   1.0000   1.0000
 Cp, KJ/(KG)(K)    1.7539   1.6991   1.5221
 GAMMAs            1.2789   1.2905   1.3356
 SON VEL,M/SEC      650.9    611.6    447.3
 MACH NUMBER        0.000    1.000    2.785

 PERFORMANCE PARAMETERS

 Ae/At                      1.0000   4.0000
 CSTAR, M/SEC                866.0    866.0
 CF                         0.7062   1.4382
 Ivac, M/SEC                1085.5   1365.8
 Isp, M/SEC                  611.6   1245.6


 MOLE FRACTIONS

 H2O              0.73371  0.73371  0.73371
 *O2              0.26629  0.26629  0.26629

  * THERMODYNAMIC PROPERTIES FITTED TO 20000.K

    PRODUCTS WHICH WERE CONSIDERED BUT WHOSE MOLE FRACTIONS
    WERE LESS THAN 5.000000E-06 FOR ALL ASSIGNED CONDITIONS

 *H              HO2             *H2             H2O2            *O             
 *OH             O3              H2O(cr)         H2O(L)         

 NOTE. WEIGHT FRACTION OF FUEL IN TOTAL FUELS AND OF OXIDANT IN TOTAL OXIDANTS





           THEORETICAL ROCKET PERFORMANCE ASSUMING FROZEN COMPOSITION

 Pin =    14.5 PSIA
 CASE =                

             REACTANT                    WT FRACTION      ENERGY      TEMP
                                          (SEE NOTE)     KJ/KG-MOL      K  
 OXIDANT     H2O2(L)                      1.0000000   -187793.400    298.000
 FUEL        H2O(L)                       1.0000000   -285841.390    298.000

 O/F=    5.00000  %FUEL= 16.666667  R,EQ.RATIO= 0.579411  PHI,EQ.RATIO= 0.000000

                 CHAMBER   THROAT     EXIT
 Pinf/P            1.0000   1.8274   28.805
 P, BAR            1.0000  0.54723  0.03472
 T, K              866.16   757.83   391.65
 RHO, KG/CU M    3.0186-1 1.8880-1 2.3176-2
 H, KJ/KG        -7245.23 -7432.25 -8020.93
 U, KJ/KG        -7576.51 -7722.10 -8170.72
 G, KJ/KG        -16603.0 -15619.7 -12252.3
 S, KJ/(KG)(K)    10.8038  10.8038  10.8038

 M, (1/n)          21.739   21.739   21.739
 MW, MOL WT        21.739   21.739   21.739
 Cp, KJ/(KG)(K)    1.7538   1.6991   1.5221
 GAMMAs            1.2789   1.2905   1.3356
 SON VEL,M/SEC      650.9    611.6    447.3
 MACH NUMBER        0.000    1.000    2.785

 PERFORMANCE PARAMETERS

 Ae/At                      1.0000   4.0000
 CSTAR, M/SEC                866.0    866.0
 CF                         0.7062   1.4382
 Ivac, M/SEC                1085.5   1365.8
 Isp, M/SEC                  611.6   1245.6

 MOLE FRACTIONS

 H2O             0.73371   *O2             0.26629

  * THERMODYNAMIC PROPERTIES FITTED TO 20000.K

    PRODUCTS WHICH WERE CONSIDERED BUT WHOSE MOLE FRACTIONS
    WERE LESS THAN 5.000000E-06 FOR ALL ASSIGNED CONDITIONS

 *H              HO2             *H2             H2O2            *O             
 *OH             O3              H2O(cr)         H2O(L)         

 NOTE. WEIGHT FRACTION OF FUEL IN TOTAL FUELS AND OF OXIDANT IN TOTAL OXIDANTS






 POINT ITN      T            H           O 
   1    1     866.159     -21.708     -12.605
 Pinf/Pt = 1.819601
   2    3     758.563     -24.137     -12.745
 Pinf/Pt = 1.827338
   2    2     757.839     -24.156     -12.746
 Pinf/Pt = 1.827390
   2    1     757.834     -24.156     -12.746
   3    4     404.559     -41.238     -13.538
   3    2     391.605     -42.450     -13.588
   3    2     391.654     -42.445     -13.588





              THEORETICAL ROCKET PERFORMANCE ASSUMING EQUILIBRIUM

           COMPOSITION DURING EXPANSION FROM INFINITE AREA COMBUSTOR

 Pin =   145.0 PSIA
 CASE =                

             REACTANT                    WT FRACTION      ENERGY      TEMP
                                          (SEE NOTE)     KJ/KG-MOL      K  
 OXIDANT     H2O2(L)                      1.0000000   -187793.400    298.000
 FUEL        H2O(L)                       1.0000000   -285841.390    298.000

 O/F=    5.00000  %FUEL= 16.666667  R,EQ.RATIO= 0.579411  PHI,EQ.RATIO= 0.000000

                 CHAMBER   THROAT     EXIT
 Pinf/P            1.0000   1.8274   28.805
 P, BAR            10.000   5.4723  0.34717
 T, K              866.16   757.83   391.65
 RHO, KG/CU M    3.0186 0 1.8880 0 2.3176-1
 H, KJ/KG        -7245.23 -7432.25 -8020.93
 U, KJ/KG        -7576.51 -7722.10 -8170.72
 G, KJ/KG        -15840.2 -14952.3 -11907.4
 S, KJ/(KG)(K)     9.9231   9.9231   9.9231

 M, (1/n)          21.739   21.739   21.739
 MW, MOL WT        21.739   21.739   21.739
 (dLV/dLP)t      -1.00000 -1.00000 -1.00000
 (dLV/dLT)p        1.0000   1.0000   1.0000
 Cp, KJ/(KG)(K)    1.7538   1.6991   1.5221
 GAMMAs            1.2789   1.2905   1.3356
 SON VEL,M/SEC      650.9    611.6    447.3
 MACH NUMBER        0.000    1.000    2.785

 PERFORMANCE PARAMETERS

 Ae/At                     1.00000   4.0000
 CSTAR, M/SEC                866.0    866.0
 CF                         0.7062   1.4382
 Ivac, M/SEC                1085.5   1365.8
 Isp, M/SEC                  611.6   1245.6


 MOLE FRACTIONS

 H2O              0.73371  0.73371  0.73371
 *O2              0.26629  0.26629  0.26629

  * THERMODYNAMIC PROPERTIES FITTED TO 20000.K

    PRODUCTS WHICH WERE CONSIDERED BUT WHOSE MOLE FRACTIONS
    WERE LESS THAN 5.000000E-06 FOR ALL ASSIGNED CONDITIONS

 *H              HO2             *H2             H2O2            *O             
 *OH             O3              H2O(cr)         H2O(L)         

 NOTE. WEIGHT FRACTION OF FUEL IN TOTAL FUELS AND OF OXIDANT IN TOTAL OXIDANTS





           THEORETICAL ROCKET PERFORMANCE ASSUMING FROZEN COMPOSITION

 Pin =   145.0 PSIA
 CASE =                

             REACTANT                    WT FRACTION      ENERGY      TEMP
                                          (SEE NOTE)     KJ/KG-MOL      K  
 OXIDANT     H2O2(L)                      1.0000000   -187793.400    298.000
 FUEL        H2O(L)                       1.0000000   -285841.390    298.000

 O/F=    5.00000  %FUEL= 16.666667  R,EQ.RATIO= 0.579411  PHI,EQ.RATIO= 0.000000

                 CHAMBER   THROAT     EXIT
 Pinf/P            1.0000   1.8274   28.805
 P, BAR            10.000   5.4723  0.34717
 T, K              866.16   757.83   391.65
 RHO, KG/CU M    3.0186 0 1.8880 0 2.3176-1
 H, KJ/KG        -7245.23 -7432.25 -8020.93
 U, KJ/KG        -7576.51 -7722.10 -8170.72
 G, KJ/KG        -15840.2 -14952.3 -11907.4
 S, KJ/(KG)(K)     9.9231   9.9231   9.9231

 M, (1/n)          21.739   21.739   21.739
 MW, MOL WT        21.739   21.739   21.739
 Cp, KJ/(KG)(K)    1.7538   1.6991   1.5221
 GAMMAs            1.2789   1.2905   1.3356
 SON VEL,M/SEC      650.9    611.6    447.3
 MACH NUMBER        0.000    1.000    2.785

 PERFORMANCE PARAMETERS

 Ae/At                      1.0000   4.0000
 CSTAR, M/SEC                866.0    866.0
 CF                         0.7062   1.4382
 Ivac, M/SEC                1085.5   1365.8
 Isp, M/SEC                  611.6   1245.6

 MOLE FRACTIONS

 H2O             0.73371   *O2             0.26629

  * THERMODYNAMIC PROPERTIES FITTED TO 20000.K

    PRODUCTS WHICH WERE CONSIDERED BUT WHOSE MOLE FRACTIONS
    WERE LESS THAN 5.000000E-06 FOR ALL ASSIGNED CONDITIONS

 *H              HO2             *H2             H2O2            *O             
 *OH             O3              H2O(cr)         H2O(L)         

 NOTE. WEIGHT FRACTION OF FUEL IN TOTAL FUELS AND OF OXIDANT IN TOTAL OXIDANTS






 POINT ITN      T            H           O 
   1    1     866.159     -21.534     -12.258
 Pinf/Pt = 1.819601
   2    3     758.563     -23.964     -12.398
 Pinf/Pt = 1.827338
   2    2     757.839     -23.983     -12.399
 Pinf/Pt = 1.827390
   2    1     757.834     -23.983     -12.399
   3    4     404.559     -41.064     -13.191
   3    2     391.605     -42.277     -13.242
   3    2     391.654     -42.272     -13.241





              THEORETICAL ROCKET PERFORMANCE ASSUMING EQUILIBRIUM

           COMPOSITION DURING EXPANSION FROM INFINITE AREA COMBUSTOR

 Pin =   290.1 PSIA
 CASE =                

             REACTANT                    WT FRACTION      ENERGY      TEMP
                                          (SEE NOTE)     KJ/KG-MOL      K  
 OXIDANT     H2O2(L)                      1.0000000   -187793.400    298.000
 FUEL        H2O(L)                       1.0000000   -285841.390    298.000

 O/F=    5.00000  %FUEL= 16.666667  R,EQ.RATIO= 0.579411  PHI,EQ.RATIO= 0.000000

                 CHAMBER   THROAT     EXIT
 Pinf/P            1.0000   1.8274   28.805
 P, BAR            20.000   10.945  0.69433
 T, K              866.16   757.83   391.65
 RHO, KG/CU M    6.0372 0 3.7760 0 4.6352-1
 H, KJ/KG        -7245.23 -7432.25 -8020.93
 U, KJ/KG        -7576.51 -7722.10 -8170.72
 G, KJ/KG        -15610.6 -14751.4 -11803.5
 S, KJ/(KG)(K)     9.6580   9.6580   9.6580

 M, (1/n)          21.739   21.739   21.739
 MW, MOL WT        21.739   21.739   21.739
 (dLV/dLP)t      -1.00000 -1.00000 -1.00000
 (dLV/dLT)p        1.0000   1.0000   1.0000
 Cp, KJ/(KG)(K)    1.7538   1.6991   1.5221
 GAMMAs            1.2789   1.2905   1.3356
 SON VEL,M/SEC      650.9    611.6    447.3
 MACH NUMBER        0.000    1.000    2.785

 PERFORMANCE PARAMETERS

 Ae/At                      1.0000   4.0000
 CSTAR, M/SEC                866.0    866.0
 CF                         0.7062   1.4382
 Ivac, M/SEC                1085.5   1365.8
 Isp, M/SEC                  611.6   1245.6


 MOLE FRACTIONS

 H2O              0.73371  0.73371  0.73371
 *O2              0.26629  0.26629  0.26629

  * THERMODYNAMIC PROPERTIES FITTED TO 20000.K

    PRODUCTS WHICH WERE CONSIDERED BUT WHOSE MOLE FRACTIONS
    WERE LESS THAN 5.000000E-06 FOR ALL ASSIGNED CONDITIONS

 *H              HO2             *H2             H2O2            *O             
 *OH             O3              H2O(cr)         H2O(L)         

 NOTE. WEIGHT FRACTION OF FUEL IN TOTAL FUELS AND OF OXIDANT IN TOTAL OXIDANTS





           THEORETICAL ROCKET PERFORMANCE ASSUMING FROZEN COMPOSITION

 Pin =   290.1 PSIA
 CASE =                

             REACTANT                    WT FRACTION      ENERGY      TEMP
                                          (SEE NOTE)     KJ/KG-MOL      K  
 OXIDANT     H2O2(L)                      1.0000000   -187793.400    298.000
 FUEL        H2O(L)                       1.0000000   -285841.390    298.000

 O/F=    5.00000  %FUEL= 16.666667  R,EQ.RATIO= 0.579411  PHI,EQ.RATIO= 0.000000

                 CHAMBER   THROAT     EXIT
 Pinf/P            1.0000   1.8274   28.805
 P, BAR            20.000   10.945  0.69433
 T, K              866.16   757.83   391.65
 RHO, KG/CU M    6.0372 0 3.7760 0 4.6352-1
 H, KJ/KG        -7245.23 -7432.25 -8020.93
 U, KJ/KG        -7576.51 -7722.10 -8170.72
 G, KJ/KG        -15610.6 -14751.4 -11803.5
 S, KJ/(KG)(K)     9.6580   9.6580   9.6580

 M, (1/n)          21.739   21.739   21.739
 MW, MOL WT        21.739   21.739   21.739
 Cp, KJ/(KG)(K)    1.7538   1.6991   1.5221
 GAMMAs            1.2789   1.2905   1.3356
 SON VEL,M/SEC      650.9    611.6    447.3
 MACH NUMBER        0.000    1.000    2.785

 PERFORMANCE PARAMETERS

 Ae/At                      1.0000   4.0000
 CSTAR, M/SEC                866.0    866.0
 CF                         0.7062   1.4382
 Ivac, M/SEC                1085.5   1365.8
 Isp, M/SEC                  611.6   1245.6

 MOLE FRACTIONS

 H2O             0.73371   *O2             0.26629

  * THERMODYNAMIC PROPERTIES FITTED TO 20000.K

    PRODUCTS WHICH WERE CONSIDERED BUT WHOSE MOLE FRACTIONS
    WERE LESS THAN 5.000000E-06 FOR ALL ASSIGNED CONDITIONS

 *H              HO2             *H2             H2O2            *O             
 *OH             O3              H2O(cr)         H2O(L)         

 NOTE. WEIGHT FRACTION OF FUEL IN TOTAL FUELS AND OF OXIDANT IN TOTAL OXIDANTS






 POINT ITN      T            H           O 
   1    1     866.159     -21.433     -12.055
 Pinf/Pt = 1.819601
   2    3     758.563     -23.863     -12.195
 Pinf/Pt = 1.827337
   2    2     757.839     -23.881     -12.196
 Pinf/Pt = 1.827389
   2    1     757.834     -23.881     -12.196
   3    4     404.559     -40.963     -12.989
   3    2     391.605     -42.175     -13.039
   3    2     391.654     -42.170     -13.039





              THEORETICAL ROCKET PERFORMANCE ASSUMING EQUILIBRIUM

           COMPOSITION DURING EXPANSION FROM INFINITE AREA COMBUSTOR

 Pin =   435.1 PSIA
 CASE =                

             REACTANT                    WT FRACTION      ENERGY      TEMP
                                          (SEE NOTE)     KJ/KG-MOL      K  
 OXIDANT     H2O2(L)                      1.0000000   -187793.400    298.000
 FUEL        H2O(L)                       1.0000000   -285841.390    298.000

 O/F=    5.00000  %FUEL= 16.666667  R,EQ.RATIO= 0.579411  PHI,EQ.RATIO= 0.000000

                 CHAMBER   THROAT     EXIT
 Pinf/P            1.0000   1.8274   28.805
 P, BAR            30.000   16.417   1.0415
 T, K              866.16   757.83   391.65
 RHO, KG/CU M    9.0558 0 5.6639 0 6.9528-1
 H, KJ/KG        -7245.23 -7432.25 -8020.93
 U, KJ/KG        -7576.51 -7722.10 -8170.72
 G, KJ/KG        -15476.3 -14633.9 -11742.8
 S, KJ/(KG)(K)     9.5029   9.5029   9.5029

 M, (1/n)          21.739   21.739   21.739
 MW, MOL WT        21.739   21.739   21.739
 (dLV/dLP)t      -1.00000 -1.00000 -1.00000
 (dLV/dLT)p        1.0000   1.0000   1.0000
 Cp, KJ/(KG)(K)    1.7538   1.6991   1.5221
 GAMMAs            1.2789   1.2905   1.3356
 SON VEL,M/SEC      650.9    611.6    447.3
 MACH NUMBER        0.000    1.000    2.785

 PERFORMANCE PARAMETERS

 Ae/At                      1.0000   4.0000
 CSTAR, M/SEC                866.0    866.0
 CF                         0.7062   1.4382
 Ivac, M/SEC                1085.5   1365.8
 Isp, M/SEC                  611.6   1245.6


 MOLE FRACTIONS

 H2O              0.73371  0.73371  0.73371
 *O2              0.26629  0.26629  0.26629

  * THERMODYNAMIC PROPERTIES FITTED TO 20000.K

    PRODUCTS WHICH WERE CONSIDERED BUT WHOSE MOLE FRACTIONS
    WERE LESS THAN 5.000000E-06 FOR ALL ASSIGNED CONDITIONS

 *H              HO2             *H2             H2O2            *O             
 *OH             O3              H2O(cr)         H2O(L)         

 NOTE. WEIGHT FRACTION OF FUEL IN TOTAL FUELS AND OF OXIDANT IN TOTAL OXIDANTS





           THEORETICAL ROCKET PERFORMANCE ASSUMING FROZEN COMPOSITION

 Pin =   435.1 PSIA
 CASE =                

             REACTANT                    WT FRACTION      ENERGY      TEMP
                                          (SEE NOTE)     KJ/KG-MOL      K  
 OXIDANT     H2O2(L)                      1.0000000   -187793.400    298.000
 FUEL        H2O(L)                       1.0000000   -285841.390    298.000

 O/F=    5.00000  %FUEL= 16.666667  R,EQ.RATIO= 0.579411  PHI,EQ.RATIO= 0.000000

                 CHAMBER   THROAT     EXIT
 Pinf/P            1.0000   1.8274   28.805
 P, BAR            30.000   16.417   1.0415
 T, K              866.16   757.83   391.65
 RHO, KG/CU M    9.0558 0 5.6639 0 6.9528-1
 H, KJ/KG        -7245.23 -7432.25 -8020.93
 U, KJ/KG        -7576.51 -7722.10 -8170.72
 G, KJ/KG        -15476.3 -14633.9 -11742.8
 S, KJ/(KG)(K)     9.5029   9.5029   9.5029

 M, (1/n)          21.739   21.739   21.739
 MW, MOL WT        21.739   21.739   21.739
 Cp, KJ/(KG)(K)    1.7538   1.6991   1.5221
 GAMMAs            1.2789   1.2905   1.3356
 SON VEL,M/SEC      650.9    611.6    447.3
 MACH NUMBER        0.000    1.000    2.785

 PERFORMANCE PARAMETERS

 Ae/At                      1.0000   4.0000
 CSTAR, M/SEC                866.0    866.0
 CF                         0.7062   1.4382
 Ivac, M/SEC                1085.5   1365.8
 Isp, M/SEC                  611.6   1245.6

 MOLE FRACTIONS

 H2O             0.73371   *O2             0.26629

  * THERMODYNAMIC PROPERTIES FITTED TO 20000.K

    PRODUCTS WHICH WERE CONSIDERED BUT WHOSE MOLE FRACTIONS
    WERE LESS THAN 5.000000E-06 FOR ALL ASSIGNED CONDITIONS

 *H              HO2             *H2             H2O2            *O             
 *OH             O3              H2O(cr)         H2O(L)         

 NOTE. WEIGHT FRACTION OF FUEL IN TOTAL FUELS AND OF OXIDANT IN TOTAL OXIDANTS






 POINT ITN      T            H           O 
   1    1     866.159     -21.361     -11.912
 Pinf/Pt = 1.819601
   2    3     758.563     -23.791     -12.052
 Pinf/Pt = 1.827338
   2    2     757.839     -23.809     -12.053
 Pinf/Pt = 1.827390
   2    1     757.834     -23.810     -12.053
   3    4     404.559     -40.891     -12.845
   3    2     391.605     -42.103     -12.895
   3    2     391.654     -42.099     -12.895





              THEORETICAL ROCKET PERFORMANCE ASSUMING EQUILIBRIUM

           COMPOSITION DURING EXPANSION FROM INFINITE AREA COMBUSTOR

 Pin =   580.2 PSIA
 CASE =                

             REACTANT                    WT FRACTION      ENERGY      TEMP
                                          (SEE NOTE)     KJ/KG-MOL      K  
 OXIDANT     H2O2(L)                      1.0000000   -187793.400    298.000
 FUEL        H2O(L)                       1.0000000   -285841.390    298.000

 O/F=    5.00000  %FUEL= 16.666667  R,EQ.RATIO= 0.579411  PHI,EQ.RATIO= 0.000000

                 CHAMBER   THROAT     EXIT
 Pinf/P            1.0000   1.8274   28.805
 P, BAR            40.000   21.889   1.3887
 T, K              866.16   757.83   391.65
 RHO, KG/CU M    1.2074 1 7.5519 0 9.2704-1
 H, KJ/KG        -7245.23 -7432.25 -8020.93
 U, KJ/KG        -7576.51 -7722.10 -8170.72
 G, KJ/KG        -15381.0 -14550.5 -11699.7
 S, KJ/(KG)(K)     9.3929   9.3929   9.3929

 M, (1/n)          21.739   21.739   21.739
 MW, MOL WT        21.739   21.739   21.739
 (dLV/dLP)t      -1.00000 -1.00000 -1.00000
 (dLV/dLT)p        1.0000   1.0000   1.0000
 Cp, KJ/(KG)(K)    1.7538   1.6991   1.5221
 GAMMAs            1.2789   1.2905   1.3356
 SON VEL,M/SEC      650.9    611.6    447.3
 MACH NUMBER        0.000    1.000    2.785

 PERFORMANCE PARAMETERS

 Ae/At                      1.0000   4.0000
 CSTAR, M/SEC                866.0    866.0
 CF                         0.7062   1.4382
 Ivac, M/SEC                1085.5   1365.8
 Isp, M/SEC                  611.6   1245.6


 MOLE FRACTIONS

 H2O              0.73371  0.73371  0.73371
 *O2              0.26629  0.26629  0.26629

  * THERMODYNAMIC PROPERTIES FITTED TO 20000.K

    PRODUCTS WHICH WERE CONSIDERED BUT WHOSE MOLE FRACTIONS
    WERE LESS THAN 5.000000E-06 FOR ALL ASSIGNED CONDITIONS

 *H              HO2             *H2             H2O2            *O             
 *OH             O3              H2O(cr)         H2O(L)         

 NOTE. WEIGHT FRACTION OF FUEL IN TOTAL FUELS AND OF OXIDANT IN TOTAL OXIDANTS





           THEORETICAL ROCKET PERFORMANCE ASSUMING FROZEN COMPOSITION

 Pin =   580.2 PSIA
 CASE =                

             REACTANT                    WT FRACTION      ENERGY      TEMP
                                          (SEE NOTE)     KJ/KG-MOL      K  
 OXIDANT     H2O2(L)                      1.0000000   -187793.400    298.000
 FUEL        H2O(L)                       1.0000000   -285841.390    298.000

 O/F=    5.00000  %FUEL= 16.666667  R,EQ.RATIO= 0.579411  PHI,EQ.RATIO= 0.000000

                 CHAMBER   THROAT     EXIT
 Pinf/P            1.0000   1.8274   28.805
 P, BAR            40.000   21.889   1.3887
 T, K              866.16   757.83   391.65
 RHO, KG/CU M    1.2074 1 7.5519 0 9.2704-1
 H, KJ/KG        -7245.23 -7432.25 -8020.93
 U, KJ/KG        -7576.51 -7722.10 -8170.72
 G, KJ/KG        -15381.0 -14550.5 -11699.7
 S, KJ/(KG)(K)     9.3929   9.3929   9.3929

 M, (1/n)          21.739   21.739   21.739
 MW, MOL WT        21.739   21.739   21.739
 Cp, KJ/(KG)(K)    1.7538   1.6991   1.5221
 GAMMAs            1.2789   1.2905   1.3356
 SON VEL,M/SEC      650.9    611.6    447.3
 MACH NUMBER        0.000    1.000    2.785

 PERFORMANCE PARAMETERS

 Ae/At                     1.00000   4.0000
 CSTAR, M/SEC                866.0    866.0
 CF                         0.7062   1.4382
 Ivac, M/SEC                1085.5   1365.8
 Isp, M/SEC                  611.6   1245.6

 MOLE FRACTIONS

 H2O             0.73371   *O2             0.26629

  * THERMODYNAMIC PROPERTIES FITTED TO 20000.K

    PRODUCTS WHICH WERE CONSIDERED BUT WHOSE MOLE FRACTIONS
    WERE LESS THAN 5.000000E-06 FOR ALL ASSIGNED CONDITIONS

 *H              HO2             *H2             H2O2            *O             
 *OH             O3              H2O(cr)         H2O(L)         

 NOTE. WEIGHT FRACTION OF FUEL IN TOTAL FUELS AND OF OXIDANT IN TOTAL OXIDANTS






 POINT ITN      T            H           O 
   1    1     866.159     -21.305     -11.800
 Pinf/Pt = 1.819601
   2    3     758.563     -23.735     -11.940
 Pinf/Pt = 1.827338
   2    2     757.839     -23.754     -11.941
 Pinf/Pt = 1.827390
   2    1     757.834     -23.754     -11.941
   3    4     404.559     -40.835     -12.733
   3    2     391.605     -42.047     -12.783
   3    2     391.654     -42.043     -12.783





              THEORETICAL ROCKET PERFORMANCE ASSUMING EQUILIBRIUM

           COMPOSITION DURING EXPANSION FROM INFINITE AREA COMBUSTOR

 Pin =   725.2 PSIA
 CASE =                

             REACTANT                    WT FRACTION      ENERGY      TEMP
                                          (SEE NOTE)     KJ/KG-MOL      K  
 OXIDANT     H2O2(L)                      1.0000000   -187793.400    298.000
 FUEL        H2O(L)                       1.0000000   -285841.390    298.000

 O/F=    5.00000  %FUEL= 16.666667  R,EQ.RATIO= 0.579411  PHI,EQ.RATIO= 0.000000

                 CHAMBER   THROAT     EXIT
 Pinf/P            1.0000   1.8274   28.805
 P, BAR            50.000   27.361   1.7358
 T, K              866.16   757.83   391.65
 RHO, KG/CU M    1.5093 1 9.4399 0 1.1588 0
 H, KJ/KG        -7245.23 -7432.25 -8020.93
 U, KJ/KG        -7576.51 -7722.10 -8170.72
 G, KJ/KG        -15307.1 -14485.8 -11666.3
 S, KJ/(KG)(K)     9.3076   9.3076   9.3076

 M, (1/n)          21.739   21.739   21.739
 MW, MOL WT        21.739   21.739   21.739
 (dLV/dLP)t      -1.00000 -1.00000 -1.00000
 (dLV/dLT)p        1.0000   1.0000   1.0000
 Cp, KJ/(KG)(K)    1.7538   1.6991   1.5221
 GAMMAs            1.2789   1.2905   1.3356
 SON VEL,M/SEC      650.9    611.6    447.3
 MACH NUMBER        0.000    1.000    2.785

 PERFORMANCE PARAMETERS

 Ae/At                      1.0000   4.0000
 CSTAR, M/SEC                866.0    866.0
 CF                         0.7062   1.4382
 Ivac, M/SEC                1085.5   1365.8
 Isp, M/SEC                  611.6   1245.6


 MOLE FRACTIONS

 H2O              0.73371  0.73371  0.73371
 *O2              0.26629  0.26629  0.26629

  * THERMODYNAMIC PROPERTIES FITTED TO 20000.K

    PRODUCTS WHICH WERE CONSIDERED BUT WHOSE MOLE FRACTIONS
    WERE LESS THAN 5.000000E-06 FOR ALL ASSIGNED CONDITIONS

 *H              HO2             *H2             H2O2            *O             
 *OH             O3              H2O(cr)         H2O(L)         

 NOTE. WEIGHT FRACTION OF FUEL IN TOTAL FUELS AND OF OXIDANT IN TOTAL OXIDANTS





           THEORETICAL ROCKET PERFORMANCE ASSUMING FROZEN COMPOSITION

 Pin =   725.2 PSIA
 CASE =                

             REACTANT                    WT FRACTION      ENERGY      TEMP
                                          (SEE NOTE)     KJ/KG-MOL      K  
 OXIDANT     H2O2(L)                      1.0000000   -187793.400    298.000
 FUEL        H2O(L)                       1.0000000   -285841.390    298.000

 O/F=    5.00000  %FUEL= 16.666667  R,EQ.RATIO= 0.579411  PHI,EQ.RATIO= 0.000000

                 CHAMBER   THROAT     EXIT
 Pinf/P            1.0000   1.8274   28.805
 P, BAR            50.000   27.361   1.7358
 T, K              866.16   757.83   391.65
 RHO, KG/CU M    1.5093 1 9.4399 0 1.1588 0
 H, KJ/KG        -7245.23 -7432.25 -8020.93
 U, KJ/KG        -7576.51 -7722.10 -8170.72
 G, KJ/KG        -15307.1 -14485.8 -11666.3
 S, KJ/(KG)(K)     9.3076   9.3076   9.3076

 M, (1/n)          21.739   21.739   21.739
 MW, MOL WT        21.739   21.739   21.739
 Cp, KJ/(KG)(K)    1.7538   1.6991   1.5221
 GAMMAs            1.2789   1.2905   1.3356
 SON VEL,M/SEC      650.9    611.6    447.3
 MACH NUMBER        0.000    1.000    2.785

 PERFORMANCE PARAMETERS

 Ae/At                      1.0000   4.0000
 CSTAR, M/SEC                866.0    866.0
 CF                         0.7062   1.4382
 Ivac, M/SEC                1085.5   1365.8
 Isp, M/SEC                  611.6   1245.6

 MOLE FRACTIONS

 H2O             0.73371   *O2             0.26629

  * THERMODYNAMIC PROPERTIES FITTED TO 20000.K

    PRODUCTS WHICH WERE CONSIDERED BUT WHOSE MOLE FRACTIONS
    WERE LESS THAN 5.000000E-06 FOR ALL ASSIGNED CONDITIONS

 *H              HO2             *H2             H2O2            *O             
 *OH             O3              H2O(cr)         H2O(L)         

 NOTE. WEIGHT FRACTION OF FUEL IN TOTAL FUELS AND OF OXIDANT IN TOTAL OXIDANTS






 POINT ITN      T            H           O 
   1    1     866.159     -21.260     -11.709
 Pinf/Pt = 1.819601
   2    3     758.563     -23.689     -11.849
 Pinf/Pt = 1.827338
   2    2     757.839     -23.708     -11.850
 Pinf/Pt = 1.827390
   2    1     757.834     -23.708     -11.850
   3    4     404.559     -40.790     -12.642
   3    2     391.605     -42.002     -12.692
   3    2     391.654     -41.997     -12.692





              THEORETICAL ROCKET PERFORMANCE ASSUMING EQUILIBRIUM

           COMPOSITION DURING EXPANSION FROM INFINITE AREA COMBUSTOR

 Pin =   870.2 PSIA
 CASE =                

             REACTANT                    WT FRACTION      ENERGY      TEMP
                                          (SEE NOTE)     KJ/KG-MOL      K  
 OXIDANT     H2O2(L)                      1.0000000   -187793.400    298.000
 FUEL        H2O(L)                       1.0000000   -285841.390    298.000

 O/F=    5.00000  %FUEL= 16.666667  R,EQ.RATIO= 0.579411  PHI,EQ.RATIO= 0.000000

                 CHAMBER   THROAT     EXIT
 Pinf/P            1.0000   1.8274   28.805
 P, BAR            60.000   32.834   2.0830
 T, K              866.16   757.83   391.65
 RHO, KG/CU M    1.8112 1 1.1328 1 1.3906 0
 H, KJ/KG        -7245.23 -7432.25 -8020.93
 U, KJ/KG        -7576.51 -7722.10 -8170.72
 G, KJ/KG        -15246.7 -14433.0 -11639.0
 S, KJ/(KG)(K)     9.2378   9.2378   9.2378

 M, (1/n)          21.739   21.739   21.739
 MW, MOL WT        21.739   21.739   21.739
 (dLV/dLP)t      -1.00000 -1.00000 -1.00000
 (dLV/dLT)p        1.0000   1.0000   1.0000
 Cp, KJ/(KG)(K)    1.7538   1.6991   1.5221
 GAMMAs            1.2789   1.2905   1.3356
 SON VEL,M/SEC      650.9    611.6    447.3
 MACH NUMBER        0.000    1.000    2.785

 PERFORMANCE PARAMETERS

 Ae/At                      1.0000   4.0000
 CSTAR, M/SEC                866.0    866.0
 CF                         0.7062   1.4382
 Ivac, M/SEC                1085.5   1365.8
 Isp, M/SEC                  611.6   1245.6


 MOLE FRACTIONS

 H2O              0.73371  0.73371  0.73371
 *O2              0.26629  0.26629  0.26629

  * THERMODYNAMIC PROPERTIES FITTED TO 20000.K

    PRODUCTS WHICH WERE CONSIDERED BUT WHOSE MOLE FRACTIONS
    WERE LESS THAN 5.000000E-06 FOR ALL ASSIGNED CONDITIONS

 *H              HO2             *H2             H2O2            *O             
 *OH             O3              H2O(cr)         H2O(L)         

 NOTE. WEIGHT FRACTION OF FUEL IN TOTAL FUELS AND OF OXIDANT IN TOTAL OXIDANTS





           THEORETICAL ROCKET PERFORMANCE ASSUMING FROZEN COMPOSITION

 Pin =   870.2 PSIA
 CASE =                

             REACTANT                    WT FRACTION      ENERGY      TEMP
                                          (SEE NOTE)     KJ/KG-MOL      K  
 OXIDANT     H2O2(L)                      1.0000000   -187793.400    298.000
 FUEL        H2O(L)                       1.0000000   -285841.390    298.000

 O/F=    5.00000  %FUEL= 16.666667  R,EQ.RATIO= 0.579411  PHI,EQ.RATIO= 0.000000

                 CHAMBER   THROAT     EXIT
 Pinf/P            1.0000   1.8274   28.805
 P, BAR            60.000   32.834   2.0830
 T, K              866.16   757.83   391.65
 RHO, KG/CU M    1.8112 1 1.1328 1 1.3906 0
 H, KJ/KG        -7245.23 -7432.25 -8020.93
 U, KJ/KG        -7576.51 -7722.10 -8170.72
 G, KJ/KG        -15246.7 -14433.0 -11639.0
 S, KJ/(KG)(K)     9.2378   9.2378   9.2378

 M, (1/n)          21.739   21.739   21.739
 MW, MOL WT        21.739   21.739   21.739
 Cp, KJ/(KG)(K)    1.7538   1.6991   1.5221
 GAMMAs            1.2789   1.2905   1.3356
 SON VEL,M/SEC      650.9    611.6    447.3
 MACH NUMBER        0.000    1.000    2.785

 PERFORMANCE PARAMETERS

 Ae/At                      1.0000   4.0000
 CSTAR, M/SEC                866.0    866.0
 CF                         0.7062   1.4382
 Ivac, M/SEC                1085.5   1365.8
 Isp, M/SEC                  611.6   1245.6

 MOLE FRACTIONS

 H2O             0.73371   *O2             0.26629

  * THERMODYNAMIC PROPERTIES FITTED TO 20000.K

    PRODUCTS WHICH WERE CONSIDERED BUT WHOSE MOLE FRACTIONS
    WERE LESS THAN 5.000000E-06 FOR ALL ASSIGNED CONDITIONS

 *H              HO2             *H2             H2O2            *O             
 *OH             O3              H2O(cr)         H2O(L)         

 NOTE. WEIGHT FRACTION OF FUEL IN TOTAL FUELS AND OF OXIDANT IN TOTAL OXIDANTS






 POINT ITN      T            H           O 
   1    1     866.159     -21.221     -11.632
 Pinf/Pt = 1.819601
   2    3     758.563     -23.651     -11.772
 Pinf/Pt = 1.827338
   2    2     757.839     -23.670     -11.773
 Pinf/Pt = 1.827390
   2    1     757.834     -23.670     -11.773
   3    4     404.559     -40.751     -12.565
   3    2     391.605     -41.963     -12.615
   3    2     391.654     -41.959     -12.615





              THEORETICAL ROCKET PERFORMANCE ASSUMING EQUILIBRIUM

           COMPOSITION DURING EXPANSION FROM INFINITE AREA COMBUSTOR

 Pin =  1015.3 PSIA
 CASE =                

             REACTANT                    WT FRACTION      ENERGY      TEMP
                                          (SEE NOTE)     KJ/KG-MOL      K  
 OXIDANT     H2O2(L)                      1.0000000   -187793.400    298.000
 FUEL        H2O(L)                       1.0000000   -285841.390    298.000

 O/F=    5.00000  %FUEL= 16.666667  R,EQ.RATIO= 0.579411  PHI,EQ.RATIO= 0.000000

                 CHAMBER   THROAT     EXIT
 Pinf/P            1.0000   1.8274   28.805
 P, BAR            70.000   38.306   2.4302
 T, K              866.16   757.83   391.65
 RHO, KG/CU M    2.1130 1 1.3216 1 1.6223 0
 H, KJ/KG        -7245.23 -7432.25 -8020.93
 U, KJ/KG        -7576.51 -7722.10 -8170.72
 G, KJ/KG        -15195.6 -14388.3 -11615.9
 S, KJ/(KG)(K)     9.1789   9.1789   9.1789

 M, (1/n)          21.739   21.739   21.739
 MW, MOL WT        21.739   21.739   21.739
 (dLV/dLP)t      -1.00000 -1.00000 -1.00000
 (dLV/dLT)p        1.0000   1.0000   1.0000
 Cp, KJ/(KG)(K)    1.7538   1.6991   1.5221
 GAMMAs            1.2789   1.2905   1.3356
 SON VEL,M/SEC      650.9    611.6    447.3
 MACH NUMBER        0.000    1.000    2.785

 PERFORMANCE PARAMETERS

 Ae/At                      1.0000   4.0000
 CSTAR, M/SEC                866.0    866.0
 CF                         0.7062   1.4382
 Ivac, M/SEC                1085.5   1365.8
 Isp, M/SEC                  611.6   1245.6


 MOLE FRACTIONS

 H2O              0.73371  0.73371  0.73371
 *O2              0.26629  0.26629  0.26629

  * THERMODYNAMIC PROPERTIES FITTED TO 20000.K

    PRODUCTS WHICH WERE CONSIDERED BUT WHOSE MOLE FRACTIONS
    WERE LESS THAN 5.000000E-06 FOR ALL ASSIGNED CONDITIONS

 *H              HO2             *H2             H2O2            *O             
 *OH             O3              H2O(cr)         H2O(L)         

 NOTE. WEIGHT FRACTION OF FUEL IN TOTAL FUELS AND OF OXIDANT IN TOTAL OXIDANTS





           THEORETICAL ROCKET PERFORMANCE ASSUMING FROZEN COMPOSITION

 Pin =  1015.3 PSIA
 CASE =                

             REACTANT                    WT FRACTION      ENERGY      TEMP
                                          (SEE NOTE)     KJ/KG-MOL      K  
 OXIDANT     H2O2(L)                      1.0000000   -187793.400    298.000
 FUEL        H2O(L)                       1.0000000   -285841.390    298.000

 O/F=    5.00000  %FUEL= 16.666667  R,EQ.RATIO= 0.579411  PHI,EQ.RATIO= 0.000000

                 CHAMBER   THROAT     EXIT
 Pinf/P            1.0000   1.8274   28.805
 P, BAR            70.000   38.306   2.4302
 T, K              866.16   757.83   391.65
 RHO, KG/CU M    2.1130 1 1.3216 1 1.6223 0
 H, KJ/KG        -7245.23 -7432.25 -8020.93
 U, KJ/KG        -7576.51 -7722.10 -8170.72
 G, KJ/KG        -15195.6 -14388.3 -11615.9
 S, KJ/(KG)(K)     9.1789   9.1789   9.1789

 M, (1/n)          21.739   21.739   21.739
 MW, MOL WT        21.739   21.739   21.739
 Cp, KJ/(KG)(K)    1.7538   1.6991   1.5221
 GAMMAs            1.2789   1.2905   1.3356
 SON VEL,M/SEC      650.9    611.6    447.3
 MACH NUMBER        0.000    1.000    2.785

 PERFORMANCE PARAMETERS

 Ae/At                      1.0000   4.0000
 CSTAR, M/SEC                866.0    866.0
 CF                         0.7062   1.4382
 Ivac, M/SEC                1085.5   1365.8
 Isp, M/SEC                  611.6   1245.6

 MOLE FRACTIONS

 H2O             0.73371   *O2             0.26629

  * THERMODYNAMIC PROPERTIES FITTED TO 20000.K

    PRODUCTS WHICH WERE CONSIDERED BUT WHOSE MOLE FRACTIONS
    WERE LESS THAN 5.000000E-06 FOR ALL ASSIGNED CONDITIONS

 *H              HO2             *H2             H2O2            *O             
 *OH             O3              H2O(cr)         H2O(L)         

 NOTE. WEIGHT FRACTION OF FUEL IN TOTAL FUELS AND OF OXIDANT IN TOTAL OXIDANTS






 O/F =   6.000000

                       EFFECTIVE FUEL     EFFECTIVE OXIDANT        MIXTURE
 ENTHALPY                  h(2)/R              h(1)/R               h0/R
 (KG-MOL)(K)/KG       -0.19083035E+04     -0.66401406E+03     -0.84176969E+03

 KG-FORM.WT./KG             bi(2)               bi(1)               b0i
  *H                   0.11101687E+00      0.58798142E-01      0.66257961E-01
  *O                   0.55508435E-01      0.58798142E-01      0.58328184E-01

 POINT ITN      T            H           O 
   1    3     924.520     -21.292     -13.822
 Pinf/Pt = 1.816345
   2    3     811.574     -23.526     -13.957
 Pinf/Pt = 1.824095
   2    2     810.808     -23.543     -13.958
 Pinf/Pt = 1.824148
   2    1     810.802     -23.543     -13.958
   3    4     436.319     -39.235     -14.709
   3    2     422.787     -40.323     -14.755
   3    2     422.836     -40.319     -14.754





              THEORETICAL ROCKET PERFORMANCE ASSUMING EQUILIBRIUM

           COMPOSITION DURING EXPANSION FROM INFINITE AREA COMBUSTOR

 Pin =    14.5 PSIA
 CASE =                

             REACTANT                    WT FRACTION      ENERGY      TEMP
                                          (SEE NOTE)     KJ/KG-MOL      K  
 OXIDANT     H2O2(L)                      1.0000000   -187793.400    298.000
 FUEL        H2O(L)                       1.0000000   -285841.390    298.000

 O/F=    6.00000  %FUEL= 14.285714  R,EQ.RATIO= 0.567976  PHI,EQ.RATIO= 0.000000

                 CHAMBER   THROAT     EXIT
 Pinf/P            1.0000   1.8241   28.560
 P, BAR            1.0000  0.54820  0.03501
 T, K              924.52   810.80   422.84
 RHO, KG/CU M    2.8448-1 1.7783-1 2.1779-2
 H, KJ/KG        -6998.90 -7196.99 -7824.27
 U, KJ/KG        -7350.42 -7505.27 -7985.04
 G, KJ/KG        -17041.9 -16004.6 -12417.5
 S, KJ/(KG)(K)    10.8629  10.8629  10.8629

 M, (1/n)          21.868   21.868   21.868
 MW, MOL WT        21.868   21.868   21.868
 (dLV/dLP)t      -1.00000 -1.00000 -1.00000
 (dLV/dLT)p        1.0000   1.0000   1.0000
 Cp, KJ/(KG)(K)    1.7702   1.7136   1.5239
 GAMMAs            1.2735   1.2851   1.3324
 SON VEL,M/SEC      669.1    629.4    462.8
 MACH NUMBER        0.000    1.000    2.776

 PERFORMANCE PARAMETERS

 Ae/At                      1.0000   4.0000
 CSTAR, M/SEC                893.4    893.4
 CF                         0.7045   1.4381
 Ivac, M/SEC                1119.2   1409.9
 Isp, M/SEC                  629.4   1284.8


 MOLE FRACTIONS

 H2O              0.72447  0.72447  0.72447
 *O2              0.27553  0.27553  0.27553

  * THERMODYNAMIC PROPERTIES FITTED TO 20000.K

    PRODUCTS WHICH WERE CONSIDERED BUT WHOSE MOLE FRACTIONS
    WERE LESS THAN 5.000000E-06 FOR ALL ASSIGNED CONDITIONS

 *H              HO2             *H2             H2O2            *O             
 *OH             O3              H2O(cr)         H2O(L)         

 NOTE. WEIGHT FRACTION OF FUEL IN TOTAL FUELS AND OF OXIDANT IN TOTAL OXIDANTS





           THEORETICAL ROCKET PERFORMANCE ASSUMING FROZEN COMPOSITION

 Pin =    14.5 PSIA
 CASE =                

             REACTANT                    WT FRACTION      ENERGY      TEMP
                                          (SEE NOTE)     KJ/KG-MOL      K  
 OXIDANT     H2O2(L)                      1.0000000   -187793.400    298.000
 FUEL        H2O(L)                       1.0000000   -285841.390    298.000

 O/F=    6.00000  %FUEL= 14.285714  R,EQ.RATIO= 0.567976  PHI,EQ.RATIO= 0.000000

                 CHAMBER   THROAT     EXIT
 Pinf/P            1.0000   1.8241   28.560
 P, BAR            1.0000  0.54820  0.03501
 T, K              924.52   810.80   422.84
 RHO, KG/CU M    2.8448-1 1.7783-1 2.1779-2
 H, KJ/KG        -6998.90 -7196.99 -7824.27
 U, KJ/KG        -7350.42 -7505.27 -7985.04
 G, KJ/KG        -17041.9 -16004.6 -12417.5
 S, KJ/(KG)(K)    10.8629  10.8629  10.8629

 M, (1/n)          21.868   21.868   21.868
 MW, MOL WT        21.868   21.868   21.868
 Cp, KJ/(KG)(K)    1.7702   1.7136   1.5239
 GAMMAs            1.2735   1.2851   1.3324
 SON VEL,M/SEC      669.1    629.4    462.8
 MACH NUMBER        0.000    1.000    2.776

 PERFORMANCE PARAMETERS

 Ae/At                      1.0000   4.0000
 CSTAR, M/SEC                893.4    893.4
 CF                         0.7045   1.4381
 Ivac, M/SEC                1119.2   1409.9
 Isp, M/SEC                  629.4   1284.8

 MOLE FRACTIONS

 H2O             0.72447   *O2             0.27553

  * THERMODYNAMIC PROPERTIES FITTED TO 20000.K

    PRODUCTS WHICH WERE CONSIDERED BUT WHOSE MOLE FRACTIONS
    WERE LESS THAN 5.000000E-06 FOR ALL ASSIGNED CONDITIONS

 *H              HO2             *H2             H2O2            *O             
 *OH             O3              H2O(cr)         H2O(L)         

 NOTE. WEIGHT FRACTION OF FUEL IN TOTAL FUELS AND OF OXIDANT IN TOTAL OXIDANTS






 POINT ITN      T            H           O 
   1    1     924.521     -20.716     -12.671
 Pinf/Pt = 1.816346
   2    3     811.574     -22.950     -12.806
 Pinf/Pt = 1.824096
   2    2     810.808     -22.967     -12.807
 Pinf/Pt = 1.824148
   2    1     810.802     -22.967     -12.807
   3    4     436.319     -38.660     -13.557
   3    2     422.787     -39.747     -13.603
   3    2     422.836     -39.743     -13.603





              THEORETICAL ROCKET PERFORMANCE ASSUMING EQUILIBRIUM

           COMPOSITION DURING EXPANSION FROM INFINITE AREA COMBUSTOR

 Pin =   145.0 PSIA
 CASE =                

             REACTANT                    WT FRACTION      ENERGY      TEMP
                                          (SEE NOTE)     KJ/KG-MOL      K  
 OXIDANT     H2O2(L)                      1.0000000   -187793.400    298.000
 FUEL        H2O(L)                       1.0000000   -285841.390    298.000

 O/F=    6.00000  %FUEL= 14.285714  R,EQ.RATIO= 0.567976  PHI,EQ.RATIO= 0.000000

                 CHAMBER   THROAT     EXIT
 Pinf/P            1.0000   1.8241   28.560
 P, BAR            10.000   5.4820  0.35014
 T, K              924.52   810.80   422.84
 RHO, KG/CU M    2.8448 0 1.7783 0 2.1779-1
 H, KJ/KG        -6998.90 -7196.99 -7824.27
 U, KJ/KG        -7350.42 -7505.27 -7985.04
 G, KJ/KG        -16232.5 -15294.8 -12047.3
 S, KJ/(KG)(K)     9.9874   9.9874   9.9874

 M, (1/n)          21.868   21.868   21.868
 MW, MOL WT        21.868   21.868   21.868
 (dLV/dLP)t      -1.00000 -1.00000 -1.00000
 (dLV/dLT)p        1.0000   1.0000   1.0000
 Cp, KJ/(KG)(K)    1.7702   1.7136   1.5239
 GAMMAs            1.2735   1.2851   1.3324
 SON VEL,M/SEC      669.1    629.4    462.8
 MACH NUMBER        0.000    1.000    2.776

[...]
 Isp, M/SEC                  659.6   1351.5


 MOLE FRACTIONS

 H2O              0.70757  0.70757  0.70757
 *O2              0.29243  0.29243  0.29243

  * THERMODYNAMIC PROPERTIES FITTED TO 20000.K

    PRODUCTS WHICH WERE CONSIDERED BUT WHOSE MOLE FRACTIONS
    WERE LESS THAN 5.000000E-06 FOR ALL ASSIGNED CONDITIONS

 *H              HO2             *H2             H2O2            *O             
 *OH             O3              H2O(cr)         H2O(L)         

 NOTE. WEIGHT FRACTION OF FUEL IN TOTAL FUELS AND OF OXIDANT IN TOTAL OXIDANTS





           THEORETICAL ROCKET PERFORMANCE ASSUMING FROZEN COMPOSITION

 Pin =   435.1 PSIA
 CASE =                

             REACTANT                    WT FRACTION      ENERGY      TEMP
                                          (SEE NOTE)     KJ/KG-MOL      K  
 OXIDANT     H2O2(L)                      1.0000000   -187793.400    298.000
 FUEL        H2O(L)                       1.0000000   -285841.390    298.000

 O/F=    9.00000  %FUEL= 10.000000  R,EQ.RATIO= 0.547468  PHI,EQ.RATIO= 0.000000

                 CHAMBER   THROAT     EXIT
 Pinf/P            1.0000   1.8187   28.126
 P, BAR            30.000   16.495   1.0666
 T, K             1029.36   906.30   480.33
 RHO, KG/CU M    7.7482 0 4.8387 0 5.9035-1
 H, KJ/KG        -6555.52 -6773.05 -7468.86
 U, KJ/KG        -6942.71 -7113.95 -7649.53
 G, KJ/KG        -16511.7 -15539.0 -12114.7
 S, KJ/(KG)(K)     9.6722   9.6722   9.6722

 M, (1/n)          22.105   22.105   22.105
 MW, MOL WT        22.105   22.105   22.105
 Cp, KJ/(KG)(K)    1.7971   1.7380   1.5297
 GAMMAs            1.2647   1.2762   1.3261
 SON VEL,M/SEC      699.8    659.6    489.5
 MACH NUMBER        0.000    1.000    2.761

 PERFORMANCE PARAMETERS

 Ae/At                      1.0000   4.0000
 CSTAR, M/SEC                940.0    940.0
 CF                         0.7017   1.4379
 Ivac, M/SEC                1176.4   1485.2
 Isp, M/SEC                  659.6   1351.5

 MOLE FRACTIONS

 H2O             0.70757   *O2             0.29243

  * THERMODYNAMIC PROPERTIES FITTED TO 20000.K

    PRODUCTS WHICH WERE CONSIDERED BUT WHOSE MOLE FRACTIONS
    WERE LESS THAN 5.000000E-06 FOR ALL ASSIGNED CONDITIONS

 *H              HO2             *H2             H2O2            *O             
 *OH             O3              H2O(cr)         H2O(L)         

 NOTE. WEIGHT FRACTION OF FUEL IN TOTAL FUELS AND OF OXIDANT IN TOTAL OXIDANTS






 POINT ITN      T            H           O 
   1    1    1029.359     -18.887     -12.093
 Pinf/Pt = 1.810974
   2    3     907.138     -20.830     -12.221
 Pinf/Pt = 1.818661
   2    2     906.307     -20.845     -12.221
 Pinf/Pt = 1.818713
   2    1     906.301     -20.845     -12.221
   3    4     494.646     -34.459     -12.911
   3    2     480.282     -35.355     -12.950
   3    2     480.331     -35.352     -12.950





              THEORETICAL ROCKET PERFORMANCE ASSUMING EQUILIBRIUM

           COMPOSITION DURING EXPANSION FROM INFINITE AREA COMBUSTOR

 Pin =   580.2 PSIA
 CASE =                

             REACTANT                    WT FRACTION      ENERGY      TEMP
                                          (SEE NOTE)     KJ/KG-MOL      K  
 OXIDANT     H2O2(L)                      1.0000000   -187793.400    298.000
 FUEL        H2O(L)                       1.0000000   -285841.390    298.000

 O/F=    9.00000  %FUEL= 10.000000  R,EQ.RATIO= 0.547468  PHI,EQ.RATIO= 0.000000

                 CHAMBER   THROAT     EXIT
 Pinf/P            1.0000   1.8187   28.126
 P, BAR            40.000   21.994   1.4221
 T, K             1029.36   906.30   480.33
 RHO, KG/CU M    1.0331 1 6.4516 0 7.8714-1
 H, KJ/KG        -6555.52 -6773.05 -7468.86
 U, KJ/KG        -6942.71 -7113.95 -7649.53
 G, KJ/KG        -16400.3 -15440.9 -12062.8
 S, KJ/(KG)(K)     9.5640   9.5640   9.5640

 M, (1/n)          22.105   22.105   22.105
 MW, MOL WT        22.105   22.105   22.105
 (dLV/dLP)t      -1.00000 -1.00000 -1.00000
 (dLV/dLT)p        1.0000   1.0000   1.0000
 Cp, KJ/(KG)(K)    1.7972   1.7380   1.5297
 GAMMAs            1.2647   1.2762   1.3261
 SON VEL,M/SEC      699.8    659.6    489.5
 MACH NUMBER        0.000    1.000    2.761

 PERFORMANCE PARAMETERS

 Ae/At                      1.0000   4.0000
 CSTAR, M/SEC                940.0    940.0
 CF                         0.7017   1.4379
 Ivac, M/SEC                1176.4   1485.2
 Isp, M/SEC                  659.6   1351.5


 MOLE FRACTIONS

 H2O              0.70757  0.70757  0.70757
 *O2              0.29243  0.29243  0.29243

  * THERMODYNAMIC PROPERTIES FITTED TO 20000.K

    PRODUCTS WHICH WERE CONSIDERED BUT WHOSE MOLE FRACTIONS
    WERE LESS THAN 5.000000E-06 FOR ALL ASSIGNED CONDITIONS

 *H              HO2             *H2             H2O2            *O             
 *OH             O3              H2O(cr)         H2O(L)         

 NOTE. WEIGHT FRACTION OF FUEL IN TOTAL FUELS AND OF OXIDANT IN TOTAL OXIDANTS





           THEORETICAL ROCKET PERFORMANCE ASSUMING FROZEN COMPOSITION

 Pin =   580.2 PSIA
 CASE =                

             REACTANT                    WT FRACTION      ENERGY      TEMP
                                          (SEE NOTE)     KJ/KG-MOL      K  
 OXIDANT     H2O2(L)                      1.0000000   -187793.400    298.000
 FUEL        H2O(L)                       1.0000000   -285841.390    298.000

 O/F=    9.00000  %FUEL= 10.000000  R,EQ.RATIO= 0.547468  PHI,EQ.RATIO= 0.000000

                 CHAMBER   THROAT     EXIT
 Pinf/P            1.0000   1.8187   28.126
 P, BAR            40.000   21.994   1.4221
 T, K             1029.36   906.30   480.33
 RHO, KG/CU M    1.0331 1 6.4516 0 7.8714-1
 H, KJ/KG        -6555.52 -6773.05 -7468.86
 U, KJ/KG        -6942.71 -7113.95 -7649.53
 G, KJ/KG        -16400.3 -15440.9 -12062.7
 S, KJ/(KG)(K)     9.5640   9.5640   9.5640

 M, (1/n)          22.105   22.105   22.105
 MW, MOL WT        22.105   22.105   22.105
 Cp, KJ/(KG)(K)    1.7971   1.7380   1.5297
 GAMMAs            1.2647   1.2762   1.3261
 SON VEL,M/SEC      699.8    659.6    489.5
 MACH NUMBER        0.000    1.000    2.761

 PERFORMANCE PARAMETERS

 Ae/At                      1.0000   4.0000
 CSTAR, M/SEC                940.0    940.0
 CF                         0.7017   1.4379
 Ivac, M/SEC                1176.4   1485.2
 Isp, M/SEC                  659.6   1351.5

 MOLE FRACTIONS

 H2O             0.70757   *O2             0.29243

  * THERMODYNAMIC PROPERTIES FITTED TO 20000.K

    PRODUCTS WHICH WERE CONSIDERED BUT WHOSE MOLE FRACTIONS
    WERE LESS THAN 5.000000E-06 FOR ALL ASSIGNED CONDITIONS

 *H              HO2             *H2             H2O2            *O             
 *OH             O3              H2O(cr)         H2O(L)         

 NOTE. WEIGHT FRACTION OF FUEL IN TOTAL FUELS AND OF OXIDANT IN TOTAL OXIDANTS






 POINT ITN      T            H           O 
   1    1    1029.359     -18.832     -11.981
 Pinf/Pt = 1.810974
   2    3     907.138     -20.775     -12.109
 Pinf/Pt = 1.818661
   2    2     906.307     -20.790     -12.110
 Pinf/Pt = 1.818713
   2    1     906.301     -20.790     -12.110
   3    4     494.646     -34.403     -12.799
   3    2     480.282     -35.300     -12.839
   3    2     480.331     -35.296     -12.839





              THEORETICAL ROCKET PERFORMANCE ASSUMING EQUILIBRIUM

           COMPOSITION DURING EXPANSION FROM INFINITE AREA COMBUSTOR

 Pin =   725.2 PSIA
 CASE =                

             REACTANT                    WT FRACTION      ENERGY      TEMP
                                          (SEE NOTE)     KJ/KG-MOL      K  
 OXIDANT     H2O2(L)                      1.0000000   -187793.400    298.000
 FUEL        H2O(L)                       1.0000000   -285841.390    298.000

 O/F=    9.00000  %FUEL= 10.000000  R,EQ.RATIO= 0.547468  PHI,EQ.RATIO= 0.000000

                 CHAMBER   THROAT     EXIT
 Pinf/P            1.0000   1.8187   28.126
 P, BAR            50.000   27.492   1.7777
 T, K             1029.36   906.30   480.33
 RHO, KG/CU M    1.2914 1 8.0645 0 9.8392-1
 H, KJ/KG        -6555.52 -6773.05 -7468.86
 U, KJ/KG        -6942.71 -7113.95 -7649.53
 G, KJ/KG        -16313.9 -15364.9 -12022.4
 S, KJ/(KG)(K)     9.4801   9.4801   9.4801

 M, (1/n)          22.105   22.105   22.105
 MW, MOL WT        22.105   22.105   22.105
 (dLV/dLP)t      -1.00000 -1.00000 -1.00000
 (dLV/dLT)p        1.0000   1.0000   1.0000
 Cp, KJ/(KG)(K)    1.7972   1.7380   1.5297
 GAMMAs            1.2647   1.2762   1.3261
 SON VEL,M/SEC      699.8    659.6    489.5
 MACH NUMBER        0.000    1.000    2.761

 PERFORMANCE PARAMETERS

 Ae/At                      1.0000   4.0000
 CSTAR, M/SEC                940.0    940.0
 CF                         0.7017   1.4379
 Ivac, M/SEC                1176.4   1485.2
 Isp, M/SEC                  659.6   1351.5


 MOLE FRACTIONS

 H2O              0.70757  0.70757  0.70757
 *O2              0.29243  0.29243  0.29243

  * THERMODYNAMIC PROPERTIES FITTED TO 20000.K

    PRODUCTS WHICH WERE CONSIDERED BUT WHOSE MOLE FRACTIONS
    WERE LESS THAN 5.000000E-06 FOR ALL ASSIGNED CONDITIONS

 *H              HO2             *H2             H2O2            *O             
 *OH             O3              H2O(cr)         H2O(L)         

 NOTE. WEIGHT FRACTION OF FUEL IN TOTAL FUELS AND OF OXIDANT IN TOTAL OXIDANTS





           THEORETICAL ROCKET PERFORMANCE ASSUMING FROZEN COMPOSITION

 Pin =   725.2 PSIA
 CASE =                

             REACTANT                    WT FRACTION      ENERGY      TEMP
                                          (SEE NOTE)     KJ/KG-MOL      K  
 OXIDANT     H2O2(L)                      1.0000000   -187793.400    298.000
 FUEL        H2O(L)                       1.0000000   -285841.390    298.000

 O/F=    9.00000  %FUEL= 10.000000  R,EQ.RATIO= 0.547468  PHI,EQ.RATIO= 0.000000

                 CHAMBER   THROAT     EXIT
 Pinf/P            1.0000   1.8187   28.126
 P, BAR            50.000   27.492   1.7777
 T, K             1029.36   906.30   480.33
 RHO, KG/CU M    1.2914 1 8.0645 0 9.8392-1
 H, KJ/KG        -6555.52 -6773.05 -7468.86
 U, KJ/KG        -6942.71 -7113.95 -7649.53
 G, KJ/KG        -16313.9 -15364.9 -12022.4
 S, KJ/(KG)(K)     9.4801   9.4801   9.4801

 M, (1/n)          22.105   22.105   22.105
 MW, MOL WT        22.105   22.105   22.105
 Cp, KJ/(KG)(K)    1.7971   1.7380   1.5297
 GAMMAs            1.2647   1.2762   1.3261
 SON VEL,M/SEC      699.8    659.6    489.5
 MACH NUMBER        0.000    1.000    2.761

 PERFORMANCE PARAMETERS

 Ae/At                      1.0000   4.0000
 CSTAR, M/SEC                940.0    940.0
 CF                         0.7017   1.4379
 Ivac, M/SEC                1176.4   1485.2
 Isp, M/SEC                  659.6   1351.5

 MOLE FRACTIONS

 H2O             0.70757   *O2             0.29243

  * THERMODYNAMIC PROPERTIES FITTED TO 20000.K

    PRODUCTS WHICH WERE CONSIDERED BUT WHOSE MOLE FRACTIONS
    WERE LESS THAN 5.000000E-06 FOR ALL ASSIGNED CONDITIONS

 *H              HO2             *H2             H2O2            *O             
 *OH             O3              H2O(cr)         H2O(L)         

 NOTE. WEIGHT FRACTION OF FUEL IN TOTAL FUELS AND OF OXIDANT IN TOTAL OXIDANTS






 POINT ITN      T            H           O 
   1    1    1029.359     -18.786     -11.890
 Pinf/Pt = 1.810974
   2    3     907.138     -20.729     -12.018
 Pinf/Pt = 1.818661
   2    2     906.307     -20.744     -12.019
 Pinf/Pt = 1.818713
   2    1     906.301     -20.744     -12.019
   3    4     494.646     -34.358     -12.708
   3    2     480.282     -35.254     -12.748
   3    2     480.331     -35.251     -12.747





              THEORETICAL ROCKET PERFORMANCE ASSUMING EQUILIBRIUM

           COMPOSITION DURING EXPANSION FROM INFINITE AREA COMBUSTOR

 Pin =   870.2 PSIA
 CASE =                

             REACTANT                    WT FRACTION      ENERGY      TEMP
                                          (SEE NOTE)     KJ/KG-MOL      K  
 OXIDANT     H2O2(L)                      1.0000000   -187793.400    298.000
 FUEL        H2O(L)                       1.0000000   -285841.390    298.000

 O/F=    9.00000  %FUEL= 10.000000  R,EQ.RATIO= 0.547468  PHI,EQ.RATIO= 0.000000

                 CHAMBER   THROAT     EXIT
 Pinf/P            1.0000   1.8187   28.126
 P, BAR            60.000   32.990   2.1332
 T, K             1029.36   906.30   480.33
 RHO, KG/CU M    1.5496 1 9.6774 0 1.1807 0
 H, KJ/KG        -6555.52 -6773.05 -7468.86
 U, KJ/KG        -6942.71 -7113.95 -7649.53
 G, KJ/KG        -16243.3 -15302.7 -11989.5
 S, KJ/(KG)(K)     9.4115   9.4115   9.4115

 M, (1/n)          22.105   22.105   22.105
 MW, MOL WT        22.105   22.105   22.105
 (dLV/dLP)t      -1.00000 -1.00000 -1.00000
 (dLV/dLT)p        1.0000   1.0000   1.0000
 Cp, KJ/(KG)(K)    1.7972   1.7380   1.5297
 GAMMAs            1.2647   1.2762   1.3261
 SON VEL,M/SEC      699.8    659.6    489.5
 MACH NUMBER        0.000    1.000    2.761

 PERFORMANCE PARAMETERS

 Ae/At                      1.0000   4.0000
 CSTAR, M/SEC                940.0    940.0
 CF                         0.7017   1.4379
 Ivac, M/SEC                1176.4   1485.2
 Isp, M/SEC                  659.6   1351.5


 MOLE FRACTIONS

 H2O              0.70757  0.70757  0.70757
 *O2              0.29243  0.29243  0.29243

  * THERMODYNAMIC PROPERTIES FITTED TO 20000.K

    PRODUCTS WHICH WERE CONSIDERED BUT WHOSE MOLE FRACTIONS
    WERE LESS THAN 5.000000E-06 FOR ALL ASSIGNED CONDITIONS

 *H              HO2             *H2             H2O2            *O             
 *OH             O3              H2O(cr)         H2O(L)         

 NOTE. WEIGHT FRACTION OF FUEL IN TOTAL FUELS AND OF OXIDANT IN TOTAL OXIDANTS





           THEORETICAL ROCKET PERFORMANCE ASSUMING FROZEN COMPOSITION

 Pin =   870.2 PSIA
 CASE =                

             REACTANT                    WT FRACTION      ENERGY      TEMP
                                          (SEE NOTE)     KJ/KG-MOL      K  
 OXIDANT     H2O2(L)                      1.0000000   -187793.400    298.000
 FUEL        H2O(L)                       1.0000000   -285841.390    298.000

 O/F=    9.00000  %FUEL= 10.000000  R,EQ.RATIO= 0.547468  PHI,EQ.RATIO= 0.000000

                 CHAMBER   THROAT     EXIT
 Pinf/P            1.0000   1.8187   28.126
 P, BAR            60.000   32.990   2.1332
 T, K             1029.36   906.30   480.33
 RHO, KG/CU M    1.5496 1 9.6774 0 1.1807 0
 H, KJ/KG        -6555.52 -6773.05 -7468.86
 U, KJ/KG        -6942.71 -7113.95 -7649.53
 G, KJ/KG        -16243.3 -15302.7 -11989.5
 S, KJ/(KG)(K)     9.4115   9.4115   9.4115

 M, (1/n)          22.105   22.105   22.105
 MW, MOL WT        22.105   22.105   22.105
 Cp, KJ/(KG)(K)    1.7971   1.7380   1.5297
 GAMMAs            1.2647   1.2762   1.3261
 SON VEL,M/SEC      699.8    659.6    489.5
 MACH NUMBER        0.000    1.000    2.761

 PERFORMANCE PARAMETERS

 Ae/At                      1.0000   4.0000
 CSTAR, M/SEC                940.0    940.0
 CF                         0.7017   1.4379
 Ivac, M/SEC                1176.4   1485.2
 Isp, M/SEC                  659.6   1351.5

 MOLE FRACTIONS

 H2O             0.70757   *O2             0.29243

  * THERMODYNAMIC PROPERTIES FITTED TO 20000.K

    PRODUCTS WHICH WERE CONSIDERED BUT WHOSE MOLE FRACTIONS
    WERE LESS THAN 5.000000E-06 FOR ALL ASSIGNED CONDITIONS

 *H              HO2             *H2             H2O2            *O             
 *OH             O3              H2O(cr)         H2O(L)         

 NOTE. WEIGHT FRACTION OF FUEL IN TOTAL FUELS AND OF OXIDANT IN TOTAL OXIDANTS






 POINT ITN      T            H           O 
   1    1    1029.359     -18.747     -11.813
 Pinf/Pt = 1.810974
   2    3     907.138     -20.690     -11.941
 Pinf/Pt = 1.818661
   2    2     906.307     -20.705     -11.942
 Pinf/Pt = 1.818713
   2    1     906.301     -20.706     -11.942
   3    4     494.646     -34.319     -12.631
   3    2     480.282     -35.215     -12.671
   3    2     480.331     -35.212     -12.670





              THEORETICAL ROCKET PERFORMANCE ASSUMING EQUILIBRIUM

           COMPOSITION DURING EXPANSION FROM INFINITE AREA COMBUSTOR

 Pin =  1015.3 PSIA
 CASE =                

             REACTANT                    WT FRACTION      ENERGY      TEMP
                                          (SEE NOTE)     KJ/KG-MOL      K  
 OXIDANT     H2O2(L)                      1.0000000   -187793.400    298.000
 FUEL        H2O(L)                       1.0000000   -285841.390    298.000

 O/F=    9.00000  %FUEL= 10.000000  R,EQ.RATIO= 0.547468  PHI,EQ.RATIO= 0.000000

                 CHAMBER   THROAT     EXIT
 Pinf/P            1.0000   1.8187   28.126
 P, BAR            70.000   38.489   2.4888
 T, K             1029.36   906.30   480.33
 RHO, KG/CU M    1.8079 1 1.1290 1 1.3775 0
 H, KJ/KG        -6555.52 -6773.05 -7468.86
 U, KJ/KG        -6942.71 -7113.95 -7649.53
 G, KJ/KG        -16183.7 -15250.2 -11961.6
 S, KJ/(KG)(K)     9.3535   9.3535   9.3535

 M, (1/n)          22.105   22.105   22.105
 MW, MOL WT        22.105   22.105   22.105
 (dLV/dLP)t      -1.00000 -1.00000 -1.00000
 (dLV/dLT)p        1.0000   1.0000   1.0000
 Cp, KJ/(KG)(K)    1.7972   1.7380   1.5297
 GAMMAs            1.2647   1.2762   1.3261
 SON VEL,M/SEC      699.8    659.6    489.5
 MACH NUMBER        0.000    1.000    2.761

 PERFORMANCE PARAMETERS

 Ae/At                      1.0000   4.0000
 CSTAR, M/SEC                940.0    940.0
 CF                         0.7017   1.4379
 Ivac, M/SEC                1176.4   1485.2
 Isp, M/SEC                  659.6   1351.5


 MOLE FRACTIONS

 H2O              0.70757  0.70757  0.70757
 *O2              0.29243  0.29243  0.29243

  * THERMODYNAMIC PROPERTIES FITTED TO 20000.K

    PRODUCTS WHICH WERE CONSIDERED BUT WHOSE MOLE FRACTIONS
    WERE LESS THAN 5.000000E-06 FOR ALL ASSIGNED CONDITIONS

 *H              HO2             *H2             H2O2            *O             
 *OH             O3              H2O(cr)         H2O(L)         

 NOTE. WEIGHT FRACTION OF FUEL IN TOTAL FUELS AND OF OXIDANT IN TOTAL OXIDANTS





           THEORETICAL ROCKET PERFORMANCE ASSUMING FROZEN COMPOSITION

 Pin =  1015.3 PSIA
 CASE =                

             REACTANT                    WT FRACTION      ENERGY      TEMP
                                          (SEE NOTE)     KJ/KG-MOL      K  
 OXIDANT     H2O2(L)                      1.0000000   -187793.400    298.000
 FUEL        H2O(L)                       1.0000000   -285841.390    298.000

 O/F=    9.00000  %FUEL= 10.000000  R,EQ.RATIO= 0.547468  PHI,EQ.RATIO= 0.000000

                 CHAMBER   THROAT     EXIT
 Pinf/P            1.0000   1.8187   28.126
 P, BAR            70.000   38.489   2.4888
 T, K             1029.36   906.30   480.33
 RHO, KG/CU M    1.8079 1 1.1290 1 1.3775 0
 H, KJ/KG        -6555.52 -6773.05 -7468.86
 U, KJ/KG        -6942.71 -7113.95 -7649.53
 G, KJ/KG        -16183.7 -15250.1 -11961.6
 S, KJ/(KG)(K)     9.3535   9.3535   9.3535

 M, (1/n)          22.105   22.105   22.105
 MW, MOL WT        22.105   22.105   22.105
 Cp, KJ/(KG)(K)    1.7971   1.7380   1.5297
 GAMMAs            1.2647   1.2762   1.3261
 SON VEL,M/SEC      699.8    659.6    489.5
 MACH NUMBER        0.000    1.000    2.761

 PERFORMANCE PARAMETERS

 Ae/At                      1.0000   4.0000
 CSTAR, M/SEC                940.0    940.0
 CF                         0.7017   1.4379
 Ivac, M/SEC                1176.4   1485.2
 Isp, M/SEC                  659.6   1351.5

 MOLE FRACTIONS

 H2O             0.70757   *O2             0.29243

  * THERMODYNAMIC PROPERTIES FITTED TO 20000.K

    PRODUCTS WHICH WERE CONSIDERED BUT WHOSE MOLE FRACTIONS
    WERE LESS THAN 5.000000E-06 FOR ALL ASSIGNED CONDITIONS

 *H              HO2             *H2             H2O2            *O             
 *OH             O3              H2O(cr)         H2O(L)         

 NOTE. WEIGHT FRACTION OF FUEL IN TOTAL FUELS AND OF OXIDANT IN TOTAL OXIDANTS



