
 *******************************************************************************

         NASA-GLENN CHEMICAL EQUILIBRIUM PROGRAM CEA2, MAY 21, 2004
                   BY  BONNIE MCBRIDE AND SANFORD GORDON
      REFS: NASA RP-1311, PART I, 1994 AND NASA RP-1311, PART II, 1996

 *******************************************************************************



 problem    o/f=4,4.1,4.2,4.3,4.4,4.5,4.75,5,5.5,6,7,8,9,10,20,30,50,70,90,99,
     rocket  equilibrium  frozen  nfz=1  tcest,k=3800
   p,bar=30,32,34,36,38,40,42,44,
   sup,ae/at=4,
 react
   oxid=H2O2(L) wt=99  t,k=273.15
   oxid=H2O(L) wt=1   t,k=273.15
   fuel=ABS  wt=100  t,k=273.15
     h,kj/mol=62.63  C 3.85 H 4.85 N 0.43
 output
     plot o/f %f p t rho h g m mw cp gam pip mach aeat cf ivac isp
 end

 OPTIONS: TP=F  HP=F  SP=F  TV=F  UV=F  SV=F  DETN=F  SHOCK=F  REFL=F  INCD=F
 RKT=T  FROZ=T  EQL=T  IONS=F  SIUNIT=T  DEBUGF=F  SHKDBG=F  DETDBG=F  TRNSPT=F

 TRACE= 0.00E+00  S/R= 0.000000E+00  H/R= 0.000000E+00  U/R= 0.000000E+00

 Pc,BAR =    30.000000    32.000000    34.000000    36.000000    38.000000    40.000000    42.000000

 Pc,BAR =    44.000000

 Pc/P =

 SUBSONIC AREA RATIOS =

 SUPERSONIC AREA RATIOS =     4.0000

 NFZ=  1  Mdot/Ac= 0.000000E+00  Ac/At= 0.000000E+00

    REACTANT          WT.FRAC   (ENERGY/R),K   TEMP,K  DENSITY
        EXPLODED FORMULA
 O: H2O2(L)          0.990000  -0.228532E+05   273.15  0.0000
          H  2.00000  O  2.00000
 O: H2O(L)           0.010000  -0.346042E+05   273.15  0.0000
          H  2.00000  O  1.00000
 F: ABS              1.000000   0.753261E+04   273.15  0.0000
          C  3.85000  H  4.85000  N  0.43000

  SPECIES BEING CONSIDERED IN THIS SYSTEM
 (CONDENSED PHASE MAY HAVE NAME LISTED SEVERAL TIMES)
  LAST thermo.inp UPDATE:    9/09/04

  g 7/97  *C               tpis79  *CH              g 4/02  CH2            
  g 4/02  CH3              g11/00  CH2OH            g 7/00  CH3O           
  g 8/99  CH4              g 7/00  CH3OH            srd 01  CH3OOH         
  g 8/99  *CN              g12/99  CNN              tpis79  *CO            
  g 9/99  *CO2             tpis91  COOH             tpis91  *C2            
  g 6/01  C2H              g 1/91  C2H2,acetylene   g 5/01  C2H2,vinylidene
  g 4/02  CH2CO,ketene     g 3/02  O(CH)2O          srd 01  HO(CO)2OH      
  g 7/01  C2H3,vinyl       g 9/00  CH3CN            g 6/96  CH3CO,acetyl   
  g 1/00  C2H4             g 8/88  C2H4O,ethylen-o  g 8/88  CH3CHO,ethanal 
  g 6/00  CH3COOH          srd 01  OHCH2COOH        g 7/00  C2H5           
  g 7/00  C2H6             g 8/88  CH3N2CH3         g 8/88  C2H5OH         
  g 7/00  CH3OCH3          srd 01  CH3O2CH3         g 7/00  CCN            
  tpis91  CNC              srd 01  OCCN             tpis79  C2N2           
  g 8/00  C2O              tpis79  *C3              n 4/98  C3H3,1-propynl 
  n 4/98  C3H3,2-propynl   g 2/00  C3H4,allene      g 1/00  C3H4,propyne   
  g 5/90  C3H4,cyclo-      g 3/01  C3H5,allyl       g 2/00  C3H6,propylene 
  g 1/00  C3H6,cyclo-      g 6/01  C3H6O,propylox   g 6/97  C3H6O,acetone  
  g 1/02  C3H6O,propanal   g 7/01  C3H7,n-propyl    g 9/85  C3H7,i-propyl  
  g 2/00  C3H8             g 2/00  C3H8O,1propanol  g 2/00  C3H8O,2propanol
  srd 01  CNCOCN           g 7/88  C3O2             g tpis  *C4            
  g 7/01  C4H2,butadiyne   g 8/00  C4H4,1,3-cyclo-  n10/92  C4H6,butadiene 
  n10/93  C4H6,1butyne     n10/93  C4H6,2butyne     g 8/00  C4H6,cyclo-    
  n 4/88  C4H8,1-butene    n 4/88  C4H8,cis2-buten  n 4/88  C4H8,tr2-butene
  n 4/88  C4H8,isobutene   g 8/00  C4H8,cyclo-      g10/00  (CH3COOH)2     
  n10/84  C4H9,n-butyl     n10/84  C4H9,i-butyl     g 1/93  C4H9,s-butyl   
  g 1/93  C4H9,t-butyl     g12/00  C4H10,n-butane   g 8/00  C4H10,isobutane
  g 6/01  C4N2             g 8/00  *C5              g 5/90  C5H6,1,3cyclo- 
  g 1/93  C5H8,cyclo-      n 4/87  C5H10,1-pentene  g 2/01  C5H10,cyclo-   
  n10/84  C5H11,pentyl     g 1/93  C5H11,t-pentyl   n10/85  C5H12,n-pentane
  n10/85  C5H12,i-pentane  n10/85  CH3C(CH3)2CH3    g 2/93  C6H2           
  g11/00  C6H5,phenyl      g 8/00  C6H5O,phenoxy    g 8/00  C6H6           
  g 8/00  C6H5OH,phenol    g 1/93  C6H10,cyclo-     n 4/87  C6H12,1-hexene 
  g 6/90  C6H12,cyclo-     n10/83  C6H13,n-hexyl    g 6/01  C6H14,n-hexane 
  g 7/01  C7H7,benzyl      g 1/93  C7H8             g12/00  C7H8O,cresol-mx
  n 4/87  C7H14,1-heptene  n10/83  C7H15,n-heptyl   n10/85  C7H16,n-heptane
  n10/85  C7H16,2-methylh  n 4/89  C8H8,styrene     n10/86  C8H10,ethylbenz
  n 4/87  C8H16,1-octene   n10/83  C8H17,n-octyl    n 4/85  C8H18,n-octane 
  n 4/85  C8H18,isooctane  n10/83  C9H19,n-nonyl    g 3/01  C10H8,naphthale
  n10/83  C10H21,n-decyl   g 8/00  C12H9,o-bipheny  g 8/00  C12H10,biphenyl
  g 6/97  *H               g 6/01  HCN              g 1/01  HCO            
  tpis89  HCCN             g 6/01  HCCO             g 6/01  HNC            
  g 7/00  HNCO             g10/01  HNO              tpis89  HNO2           
  g 5/99  HNO3             g 4/02  HO2              tpis78  *H2            
  g 5/01  HCHO,formaldehy  g 6/01  HCOOH            g 8/89  H2O            
  g 6/99  H2O2             g 6/01  (HCOOH)2         g 5/97  *N             
  g 6/01  NCO              g 4/99  *NH              g 3/01  NH2            
  tpis89  NH3              tpis89  NH2OH            tpis89  *NO            
  g 4/99  NO2              j12/64  NO3              tpis78  *N2            
  g 6/01  NCN              g 5/99  N2H2             tpis89  NH2NO2         
  g 4/99  N2H4             g 4/99  N2O              g 4/99  N2O3           
  tpis89  N2O4             g 4/99  N2O5             tpis89  N3             
  g 4/99  N3H              g 5/97  *O               g 4/02  *OH            
  tpis89  *O2              g 8/01  O3               n 4/83  C(gr)          
  n 4/83  C(gr)            n 4/83  C(gr)            g11/99  H2O(cr)        
  g 8/01  H2O(L)           g 8/01  H2O(L)         

 O/F =   4.000000

                       EFFECTIVE FUEL     EFFECTIVE OXIDANT        MIXTURE
 ENTHALPY                  h(2)/R              h(1)/R               h0/R
 (KG-MOL)(K)/KG        0.13179832E+03     -0.68435279E+03     -0.52112257E+03

 KG-FORM.WT./KG             bi(2)               bi(1)               b0i
  *H                   0.84860554E-01      0.59320330E-01      0.64428374E-01
  *O                   0.00000000E+00      0.58765245E-01      0.47012196E-01
  *C                   0.67363532E-01      0.00000000E+00      0.13472706E-01
  *N                   0.75237192E-02      0.00000000E+00      0.15047438E-02

 POINT ITN      T            H           O           C           N 

   1   20    2858.656      -9.773     -16.933     -15.123     -14.473

 Pinf/Pt = 1.745254
   2    4    2656.629      -9.915     -17.608     -15.112     -14.612

 Pinf/Pt = 1.752595
   2    2    2655.098      -9.916     -17.613     -15.111     -14.613

 Pinf/Pt = 1.752652
   2    1    2655.086      -9.916     -17.614     -15.111     -14.613

   3    4    1776.332     -10.433     -22.748     -13.767     -15.189

   3    2    1772.323     -10.435     -22.784     -13.755     -15.192






              THEORETICAL ROCKET PERFORMANCE ASSUMING EQUILIBRIUM

           COMPOSITION DURING EXPANSION FROM INFINITE AREA COMBUSTOR

 Pin =   435.1 PSIA
 CASE =                

             REACTANT                    WT FRACTION      ENERGY      TEMP
                                          (SEE NOTE)     KJ/KG-MOL      K  
 OXIDANT     H2O2(L)                      0.9900000   -190013.250    273.150
 OXIDANT     H2O(L)                       0.0100000   -287717.011    273.150
 FUEL        ABS                          1.0000000     62630.000    273.150

 O/F=    4.00000  %FUEL= 20.000000  R,EQ.RATIO= 1.258388  PHI,EQ.RATIO= 1.521705

                 CHAMBER   THROAT     EXIT
 Pinf/P            1.0000   1.7527   22.689
 P, BAR            30.000   17.117   1.3222
 T, K             2858.66  2655.09  1772.32
 RHO, KG/CU M    2.6921 0 1.6611 0 1.9321-1
 H, KJ/KG        -4332.88 -4934.56 -7112.65
 U, KJ/KG        -5447.26 -5965.00 -7797.02
 G, KJ/KG        -39247.6 -37362.9 -28759.2
 S, KJ/(KG)(K)    12.2137  12.2137  12.2137

 M, (1/n)          21.329   21.424   21.532
 (dLV/dLP)t      -1.00523 -1.00273 -1.00003
 (dLV/dLT)p        1.1175   1.0655   1.0009
 Cp, KJ/(KG)(K)    3.4553   3.0092   2.2652
 GAMMAs            1.1570   1.1678   1.2059
 SON VEL,M/SEC     1135.5   1097.0    908.5
 MACH NUMBER        0.000    1.000    2.595

 PERFORMANCE PARAMETERS

 Ae/At                      1.0000   4.0000
 CSTAR, M/SEC               1646.3   1646.3
 CF                         0.6663   1.4322
 Ivac, M/SEC                2036.3   2648.1
 Isp, M/SEC                 1097.0   2357.9


 MOLE FRACTIONS

 *CO              0.16070  0.15706  0.13285
 *CO2             0.12665  0.13157  0.15725
 *H               0.00588  0.00375  0.00009
 *H2              0.10296  0.10487  0.12869
 H2O              0.57589  0.58061  0.56490
 *NO              0.00034  0.00015  0.00000
 *N2              0.01587  0.01604  0.01620
 *O               0.00034  0.00012  0.00000
 *OH              0.01058  0.00556  0.00003
 *O2              0.00077  0.00026  0.00000

  * THERMODYNAMIC PROPERTIES FITTED TO 20000.K

    PRODUCTS WHICH WERE CONSIDERED BUT WHOSE MOLE FRACTIONS
    WERE LESS THAN 5.000000E-06 FOR ALL ASSIGNED CONDITIONS

 *C              *CH             CH2             CH3             CH2OH          
 CH3O            CH4             CH3OH           CH3OOH          *CN            
 CNN             COOH            *C2             C2H             C2H2,acetylene 
 C2H2,vinylidene CH2CO,ketene    O(CH)2O         HO(CO)2OH       C2H3,vinyl     
 CH3CN           CH3CO,acetyl    C2H4            C2H4O,ethylen-o CH3CHO,ethanal 
 CH3COOH         OHCH2COOH       C2H5            C2H6            CH3N2CH3       
 C2H5OH          CH3OCH3         CH3O2CH3        CCN             CNC            
 OCCN            C2N2            C2O             *C3             C3H3,1-propynl 
 C3H3,2-propynl  C3H4,allene     C3H4,propyne    C3H4,cyclo-     C3H5,allyl     
 C3H6,propylene  C3H6,cyclo-     C3H6O,propylox  C3H6O,acetone   C3H6O,propanal 
 C3H7,n-propyl   C3H7,i-propyl   C3H8            C3H8O,1propanol C3H8O,2propanol
 CNCOCN          C3O2            *C4             C4H2,butadiyne  C4H4,1,3-cyclo-
 C4H6,butadiene  C4H6,1butyne    C4H6,2butyne    C4H6,cyclo-     C4H8,1-butene  
 C4H8,cis2-buten C4H8,tr2-butene C4H8,isobutene  C4H8,cyclo-     (CH3COOH)2     
 C4H9,n-butyl    C4H9,i-butyl    C4H9,s-butyl    C4H9,t-butyl    C4H10,n-butane 
 C4H10,isobutane C4N2            *C5             C5H6,1,3cyclo-  C5H8,cyclo-    
 C5H10,1-pentene C5H10,cyclo-    C5H11,pentyl    C5H11,t-pentyl  C5H12,n-pentane
 C5H12,i-pentane CH3C(CH3)2CH3   C6H2            C6H5,phenyl     C6H5O,phenoxy  
 C6H6            C6H5OH,phenol   C6H10,cyclo-    C6H12,1-hexene  C6H12,cyclo-   
 C6H13,n-hexyl   C6H14,n-hexane  C7H7,benzyl     C7H8            C7H8O,cresol-mx
 C7H14,1-heptene C7H15,n-heptyl  C7H16,n-heptane C7H16,2-methylh C8H8,styrene   
 C8H10,ethylbenz C8H16,1-octene  C8H17,n-octyl   C8H18,n-octane  C8H18,isooctane
 C9H19,n-nonyl   C10H8,naphthale C10H21,n-decyl  C12H9,o-bipheny C12H10,biphenyl
 HCN             HCO             HCCN            HCCO            HNC            
 HNCO            HNO             HNO2            HNO3            HO2            
 HCHO,formaldehy HCOOH           H2O2            (HCOOH)2        *N             
 NCO             *NH             NH2             NH3             NH2OH          
 NO2             NO3             NCN             N2H2            NH2NO2         
 N2H4            N2O             N2O3            N2O4            N2O5           
 N3              N3H             O3              C(gr)           H2O(cr)        
 H2O(L)         

 NOTE. WEIGHT FRACTION OF FUEL IN TOTAL FUELS AND OF OXIDANT IN TOTAL OXIDANTS





           THEORETICAL ROCKET PERFORMANCE ASSUMING FROZEN COMPOSITION

 Pin =   435.1 PSIA
 CASE =                

             REACTANT                    WT FRACTION      ENERGY      TEMP
                                          (SEE NOTE)     KJ/KG-MOL      K  
 OXIDANT     H2O2(L)                      0.9900000   -190013.250    273.150
 OXIDANT     H2O(L)                       0.0100000   -287717.011    273.150
 FUEL        ABS                          1.0000000     62630.000    273.150

 O/F=    4.00000  %FUEL= 20.000000  R,EQ.RATIO= 1.258388  PHI,EQ.RATIO= 1.521705

                 CHAMBER   THROAT     EXIT
 Pinf/P            1.0000   1.7702   23.416
 P, BAR            30.000   16.947   1.2812
 T, K             2858.66  2603.58  1668.97
 RHO, KG/CU M    2.6921 0 1.6697 0 1.9692-1
 H, KJ/KG        -4332.88 -4940.56 -7063.59
 U, KJ/KG        -5447.26 -5955.51 -7714.20
 G, KJ/KG        -39247.6 -36739.9 -27447.9
 S, KJ/(KG)(K)    12.2137  12.2137  12.2137

 M, (1/n)          21.329   21.329   21.329
 Cp, KJ/(KG)(K)    2.3996   2.3640   2.1534
 GAMMAs            1.1940   1.1975   1.2210
 SON VEL,M/SEC     1153.5   1102.4    891.3
 MACH NUMBER        0.000    1.000    2.622

 PERFORMANCE PARAMETERS

 Ae/At                      1.0000   4.0000
 CSTAR, M/SEC               1629.8   1629.8
 CF                         0.6764   1.4339
 Ivac, M/SEC                2023.1   2615.4
 Isp, M/SEC                 1102.4   2337.0

 MOLE FRACTIONS

 *CO             0.16070   *CO2            0.12665   *H              0.00588
 *H2             0.10296   H2O             0.57589   *NO             0.00034
 *N2             0.01587   *O              0.00034   *OH             0.01058
 *O2             0.00077

  * THERMODYNAMIC PROPERTIES FITTED TO 20000.K

    PRODUCTS WHICH WERE CONSIDERED BUT WHOSE MOLE FRACTIONS
    WERE LESS THAN 5.000000E-06 FOR ALL ASSIGNED CONDITIONS

 *C              *CH             CH2             CH3             CH2OH          
 CH3O            CH4             CH3OH           CH3OOH          *CN            
 CNN             COOH            *C2             C2H             C2H2,acetylene 
 C2H2,vinylidene CH2CO,ketene    O(CH)2O         HO(CO)2OH       C2H3,vinyl     
 CH3CN           CH3CO,acetyl    C2H4            C2H4O,ethylen-o CH3CHO,ethanal 
 CH3COOH         OHCH2COOH       C2H5            C2H6            CH3N2CH3       
 C2H5OH          CH3OCH3         CH3O2CH3        CCN             CNC            
 OCCN            C2N2            C2O             *C3             C3H3,1-propynl 
 C3H3,2-propynl  C3H4,allene     C3H4,propyne    C3H4,cyclo-     C3H5,allyl     
 C3H6,propylene  C3H6,cyclo-     C3H6O,propylox  C3H6O,acetone   C3H6O,propanal 
 C3H7,n-propyl   C3H7,i-propyl   C3H8            C3H8O,1propanol C3H8O,2propanol
 CNCOCN          C3O2            *C4             C4H2,butadiyne  C4H4,1,3-cyclo-
 C4H6,butadiene  C4H6,1butyne    C4H6,2butyne    C4H6,cyclo-     C4H8,1-butene  
 C4H8,cis2-buten C4H8,tr2-butene C4H8,isobutene  C4H8,cyclo-     (CH3COOH)2     
 C4H9,n-butyl    C4H9,i-butyl    C4H9,s-butyl    C4H9,t-butyl    C4H10,n-butane 
 C4H10,isobutane C4N2            *C5             C5H6,1,3cyclo-  C5H8,cyclo-    
 C5H10,1-pentene C5H10,cyclo-    C5H11,pentyl    C5H11,t-pentyl  C5H12,n-pentane
 C5H12,i-pentane CH3C(CH3)2CH3   C6H2            C6H5,phenyl     C6H5O,phenoxy  
 C6H6            C6H5OH,phenol   C6H10,cyclo-    C6H12,1-hexene  C6H12,cyclo-   
 C6H13,n-hexyl   C6H14,n-hexane  C7H7,benzyl     C7H8            C7H8O,cresol-mx
 C7H14,1-heptene C7H15,n-heptyl  C7H16,n-heptane C7H16,2-methylh C8H8,styrene   
 C8H10,ethylbenz C8H16,1-octene  C8H17,n-octyl   C8H18,n-octane  C8H18,isooctane
 C9H19,n-nonyl   C10H8,naphthale C10H21,n-decyl  C12H9,o-bipheny C12H10,biphenyl
 HCN             HCO             HCCN            HCCO            HNC            
 HNCO            HNO             HNO2            HNO3            HO2            
 HCHO,formaldehy HCOOH           H2O2            (HCOOH)2        *N             
 NCO             *NH             NH2             NH3             NH2OH          
 NO2             NO3             NCN             N2H2            NH2NO2         
 N2H4            N2O             N2O3            N2O4            N2O5           
 N3              N3H             O3              C(gr)           H2O(cr)        
 H2O(L)         

 NOTE. WEIGHT FRACTION OF FUEL IN TOTAL FUELS AND OF OXIDANT IN TOTAL OXIDANTS






 POINT ITN      T            H           O           C           N 

   1    2    2861.080      -9.743     -16.925     -15.066     -14.442

 Pinf/Pt = 1.745635
   2    4    2657.891      -9.884     -17.603     -15.052     -14.581

 Pinf/Pt = 1.752942
   2    2    2656.359      -9.885     -17.608     -15.051     -14.582

 Pinf/Pt = 1.752999
   2    1    2656.347      -9.885     -17.608     -15.051     -14.582

   3    4    1775.992     -10.400     -22.751     -13.701     -15.157

   3    2    1772.034     -10.403     -22.787     -13.689     -15.160






              THEORETICAL ROCKET PERFORMANCE ASSUMING EQUILIBRIUM

           COMPOSITION DURING EXPANSION FROM INFINITE AREA COMBUSTOR

 Pin =   464.1 PSIA
 CASE =                

             REACTANT                    WT FRACTION      ENERGY      TEMP
                                          (SEE NOTE)     KJ/KG-MOL      K  
 OXIDANT     H2O2(L)                      0.9900000   -190013.250    273.150
 OXIDANT     H2O(L)                       0.0100000   -287717.011    273.150
 FUEL        ABS                          1.0000000     62630.000    273.150

 O/F=    4.00000  %FUEL= 20.000000  R,EQ.RATIO= 1.258388  PHI,EQ.RATIO= 1.521705

                 CHAMBER   THROAT     EXIT
 Pinf/P            1.0000   1.7530   22.698
 P, BAR            32.000   18.254   1.4098
 T, K             2861.08  2656.35  1772.03
 RHO, KG/CU M    2.8698 0 1.7709 0 2.0604-1
 H, KJ/KG        -4332.88 -4935.06 -7113.35
 U, KJ/KG        -5447.94 -5965.84 -7797.60
 G, KJ/KG        -39205.2 -37312.0 -28711.8
 S, KJ/(KG)(K)    12.1885  12.1885  12.1885

 M, (1/n)          21.334   21.427   21.532
 (dLV/dLP)t      -1.00510 -1.00265 -1.00003
 (dLV/dLT)p        1.1144   1.0636   1.0009
 Cp, KJ/(KG)(K)    3.4273   2.9909   2.2647
 GAMMAs            1.1576   1.1684   1.2060
 SON VEL,M/SEC     1136.1   1097.4    908.4
 MACH NUMBER        0.000    1.000    2.596

 PERFORMANCE PARAMETERS

 Ae/At                      1.0000   4.0000
 CSTAR, M/SEC               1646.5   1646.5
 CF                         0.6665   1.4322
 Ivac, M/SEC                2036.7   2648.3
 Isp, M/SEC                 1097.4   2358.2


 MOLE FRACTIONS

 *CO              0.16070  0.15707  0.13283
 *CO2             0.12672  0.13160  0.15727
 *H               0.00574  0.00365  0.00009
 *H2              0.10290  0.10484  0.12870
 H2O              0.57629  0.58086  0.56489
 *NO              0.00034  0.00015  0.00000
 *N2              0.01588  0.01605  0.01620
 *O               0.00033  0.00011  0.00000
 *OH              0.01036  0.00543  0.00003
 *O2              0.00074  0.00025  0.00000

  * THERMODYNAMIC PROPERTIES FITTED TO 20000.K

    PRODUCTS WHICH WERE CONSIDERED BUT WHOSE MOLE FRACTIONS
    WERE LESS THAN 5.000000E-06 FOR ALL ASSIGNED CONDITIONS

 *C              *CH             CH2             CH3             CH2OH          
 CH3O            CH4             CH3OH           CH3OOH          *CN            
 CNN             COOH            *C2             C2H             C2H2,acetylene 
 C2H2,vinylidene CH2CO,ketene    O(CH)2O         HO(CO)2OH       C2H3,vinyl     
 CH3CN           CH3CO,acetyl    C2H4            C2H4O,ethylen-o CH3CHO,ethanal 
 CH3COOH         OHCH2COOH       C2H5            C2H6            CH3N2CH3       
 C2H5OH          CH3OCH3         CH3O2CH3        CCN             CNC            
 OCCN            C2N2            C2O             *C3             C3H3,1-propynl 
 C3H3,2-propynl  C3H4,allene     C3H4,propyne    C3H4,cyclo-     C3H5,allyl     
 C3H6,propylene  C3H6,cyclo-     C3H6O,propylox  C3H6O,acetone   C3H6O,propanal 
 C3H7,n-propyl   C3H7,i-propyl   C3H8            C3H8O,1propanol C3H8O,2propanol
 CNCOCN          C3O2            *C4             C4H2,butadiyne  C4H4,1,3-cyclo-
 C4H6,butadiene  C4H6,1butyne    C4H6,2butyne    C4H6,cyclo-     C4H8,1-butene  
 C4H8,cis2-buten C4H8,tr2-butene C4H8,isobutene  C4H8,cyclo-     (CH3COOH)2     
 C4H9,n-butyl    C4H9,i-butyl    C4H9,s-butyl    C4H9,t-butyl    C4H10,n-butane 
 C4H10,isobutane C4N2            *C5             C5H6,1,3cyclo-  C5H8,cyclo-    
 C5H10,1-pentene C5H10,cyclo-    C5H11,pentyl    C5H11,t-pentyl  C5H12,n-pentane
 C5H12,i-pentane CH3C(CH3)2CH3   C6H2            C6H5,phenyl     C6H5O,phenoxy  
 C6H6            C6H5OH,phenol   C6H10,cyclo-    C6H12,1-hexene  C6H12,cyclo-   
 C6H13,n-hexyl   C6H14,n-hexane  C7H7,benzyl     C7H8            C7H8O,cresol-mx
 C7H14,1-heptene C7H15,n-heptyl  C7H16,n-heptane C7H16,2-methylh C8H8,styrene   
 C8H10,ethylbenz C8H16,1-octene  C8H17,n-octyl   C8H18,n-octane  C8H18,isooctane
 C9H19,n-nonyl   C10H8,naphthale C10H21,n-decyl  C12H9,o-bipheny C12H10,biphenyl
 HCN             HCO             HCCN            HCCO            HNC            
 HNCO            HNO             HNO2            HNO3            HO2            
 HCHO,formaldehy HCOOH           H2O2            (HCOOH)2        *N             
 NCO             *NH             NH2             NH3             NH2OH          
 NO2             NO3             NCN             N2H2            NH2NO2         
 N2H4            N2O             N2O3            N2O4            N2O5           
 N3              N3H             O3              C(gr)           H2O(cr)        
 H2O(L)         

 NOTE. WEIGHT FRACTION OF FUEL IN TOTAL FUELS AND OF OXIDANT IN TOTAL OXIDANTS





           THEORETICAL ROCKET PERFORMANCE ASSUMING FROZEN COMPOSITION

 Pin =   464.1 PSIA
 CASE =                

             REACTANT                    WT FRACTION      ENERGY      TEMP
                                          (SEE NOTE)     KJ/KG-MOL      K  
 OXIDANT     H2O2(L)                      0.9900000   -190013.250    273.150
 OXIDANT     H2O(L)                       0.0100000   -287717.011    273.150
 FUEL        ABS                          1.0000000     62630.000    273.150

 O/F=    4.00000  %FUEL= 20.000000  R,EQ.RATIO= 1.258388  PHI,EQ.RATIO= 1.521705

                 CHAMBER   THROAT     EXIT
 Pinf/P            1.0000   1.7702   23.411
 P, BAR            32.000   18.077   1.3669
 T, K             2861.08  2605.90  1670.83
 RHO, KG/CU M    2.8698 0 1.7799 0 2.0990-1
 H, KJ/KG        -4332.88 -4940.91 -7065.38
 U, KJ/KG        -5447.94 -5956.52 -7716.57
 G, KJ/KG        -39205.2 -36702.9 -27430.4
 S, KJ/(KG)(K)    12.1885  12.1885  12.1885

 M, (1/n)          21.334   21.334   21.334
 Cp, KJ/(KG)(K)    2.3999   2.3644   2.1540
 GAMMAs            1.1939   1.1974   1.2209
 SON VEL,M/SEC     1153.8   1102.8    891.6
 MACH NUMBER        0.000    1.000    2.622

 PERFORMANCE PARAMETERS

 Ae/At                      1.0000   4.0000
 CSTAR, M/SEC               1630.3   1630.3
 CF                         0.6764   1.4339
 Ivac, M/SEC                2023.7   2616.3
 Isp, M/SEC                 1102.8   2337.7

 MOLE FRACTIONS

 *CO             0.16070   *CO2            0.12672   *H              0.00574
 *H2             0.10290   H2O             0.57629   *NO             0.00034
 *N2             0.01588   *O              0.00033   *OH             0.01036
 *O2             0.00074

  * THERMODYNAMIC PROPERTIES FITTED TO 20000.K

    PRODUCTS WHICH WERE CONSIDERED BUT WHOSE MOLE FRACTIONS
    WERE LESS THAN 5.000000E-06 FOR ALL ASSIGNED CONDITIONS

 *C              *CH             CH2             CH3             CH2OH          
 CH3O            CH4             CH3OH           CH3OOH          *CN            
 CNN             COOH            *C2             C2H             C2H2,acetylene 
 C2H2,vinylidene CH2CO,ketene    O(CH)2O         HO(CO)2OH       C2H3,vinyl     
 CH3CN           CH3CO,acetyl    C2H4            C2H4O,ethylen-o CH3CHO,ethanal 
 CH3COOH         OHCH2COOH       C2H5            C2H6            CH3N2CH3       
 C2H5OH          CH3OCH3         CH3O2CH3        CCN             CNC            
 OCCN            C2N2            C2O             *C3             C3H3,1-propynl 
 C3H3,2-propynl  C3H4,allene     C3H4,propyne    C3H4,cyclo-     C3H5,allyl     
 C3H6,propylene  C3H6,cyclo-     C3H6O,propylox  C3H6O,acetone   C3H6O,propanal 
 C3H7,n-propyl   C3H7,i-propyl   C3H8            C3H8O,1propanol C3H8O,2propanol
 CNCOCN          C3O2            *C4             C4H2,butadiyne  C4H4,1,3-cyclo-
 C4H6,butadiene  C4H6,1butyne    C4H6,2butyne    C4H6,cyclo-     C4H8,1-butene  
 C4H8,cis2-buten C4H8,tr2-butene C4H8,isobutene  C4H8,cyclo-     (CH3COOH)2     
 C4H9,n-butyl    C4H9,i-butyl    C4H9,s-butyl    C4H9,t-butyl    C4H10,n-butane 
 C4H10,isobutane C4N2            *C5             C5H6,1,3cyclo-  C5H8,cyclo-    
 C5H10,1-pentene C5H10,cyclo-    C5H11,pentyl    C5H11,t-pentyl  C5H12,n-pentane
 C5H12,i-pentane CH3C(CH3)2CH3   C6H2            C6H5,phenyl     C6H5O,phenoxy  
 C6H6            C6H5OH,phenol   C6H10,cyclo-    C6H12,1-hexene  C6H12,cyclo-   
 C6H13,n-hexyl   C6H14,n-hexane  C7H7,benzyl     C7H8            C7H8O,cresol-mx
 C7H14,1-heptene C7H15,n-heptyl  C7H16,n-heptane C7H16,2-methylh C8H8,styrene   
 C8H10,ethylbenz C8H16,1-octene  C8H17,n-octyl   C8H18,n-octane  C8H18,isooctane
 C9H19,n-nonyl   C10H8,naphthale C10H21,n-decyl  C12H9,o-bipheny C12H10,biphenyl
 HCN             HCO             HCCN            HCCO            HNC            
 HNCO            HNO             HNO2            HNO3            HO2            
 HCHO,formaldehy HCOOH           H2O2            (HCOOH)2        *N             
 NCO             *NH             NH2             NH3             NH2OH          
 NO2             NO3             NCN             N2H2            NH2NO2         
 N2H4            N2O             N2O3            N2O4            N2O5           
 N3              N3H             O3              C(gr)           H2O(cr)        
 H2O(L)         

 NOTE. WEIGHT FRACTION OF FUEL IN TOTAL FUELS AND OF OXIDANT IN TOTAL OXIDANTS






 POINT ITN      T            H           O           C           N 

   1    2    2863.317      -9.714     -16.917     -15.013     -14.413

 Pinf/Pt = 1.745990
   2    4    2659.046      -9.854     -17.598     -14.996     -14.551

 Pinf/Pt = 1.753264
   2    2    2657.516      -9.855     -17.604     -14.995     -14.552

 Pinf/Pt = 1.753320
   2    1    2657.504      -9.855     -17.604     -14.995     -14.552

   3    4    1775.679     -10.370     -22.754     -13.639     -15.127

   3    2    1771.769     -10.372     -22.789     -13.627     -15.129






              THEORETICAL ROCKET PERFORMANCE ASSUMING EQUILIBRIUM

           COMPOSITION DURING EXPANSION FROM INFINITE AREA COMBUSTOR

 Pin =   493.1 PSIA
 CASE =                

             REACTANT                    WT FRACTION      ENERGY      TEMP
                                          (SEE NOTE)     KJ/KG-MOL      K  
 OXIDANT     H2O2(L)                      0.9900000   -190013.250    273.150
 OXIDANT     H2O(L)                       0.0100000   -287717.011    273.150
 FUEL        ABS                          1.0000000     62630.000    273.150

 O/F=    4.00000  %FUEL= 20.000000  R,EQ.RATIO= 1.258388  PHI,EQ.RATIO= 1.521705

                 CHAMBER   THROAT     EXIT
 Pinf/P            1.0000   1.7533   22.707
 P, BAR            34.000   19.392   1.4974
 T, K             2863.32  2657.50  1771.77
 RHO, KG/CU M    3.0474 0 1.8807 0 2.1886-1
 H, KJ/KG        -4332.88 -4935.52 -7113.98
 U, KJ/KG        -5448.57 -5966.61 -7798.14
 G, KJ/KG        -39164.8 -37263.8 -28667.4
 S, KJ/(KG)(K)    12.1649  12.1649  12.1649

 M, (1/n)          21.338   21.429   21.532
 (dLV/dLP)t      -1.00497 -1.00258 -1.00003
 (dLV/dLT)p        1.1115   1.0618   1.0009
 Cp, KJ/(KG)(K)    3.4016   2.9742   2.2643
 GAMMAs            1.1582   1.1689   1.2060
 SON VEL,M/SEC     1136.7   1097.9    908.3
 MACH NUMBER        0.000    1.000    2.596

 PERFORMANCE PARAMETERS

 Ae/At                     1.00000   4.0000
 CSTAR, M/SEC               1646.7   1646.7
 CF                         0.6667   1.4322
 Ivac, M/SEC                2037.0   2648.5
 Isp, M/SEC                 1097.8   2358.4


 MOLE FRACTIONS

 *CO              0.16070  0.15708  0.13282
 *CO2             0.12678  0.13163  0.15728
 *H               0.00560  0.00355  0.00008
 *H2              0.10284  0.10482  0.12871
 H2O              0.57667  0.58108  0.56488
 *NO              0.00033  0.00014  0.00000
 *N2              0.01589  0.01605  0.01620
 *O               0.00032  0.00010  0.00000
 *OH              0.01016  0.00530  0.00003
 *O2              0.00071  0.00023  0.00000

  * THERMODYNAMIC PROPERTIES FITTED TO 20000.K

    PRODUCTS WHICH WERE CONSIDERED BUT WHOSE MOLE FRACTIONS
    WERE LESS THAN 5.000000E-06 FOR ALL ASSIGNED CONDITIONS

 *C              *CH             CH2             CH3             CH2OH          
 CH3O            CH4             CH3OH           CH3OOH          *CN            
 CNN             COOH            *C2             C2H             C2H2,acetylene 
 C2H2,vinylidene CH2CO,ketene    O(CH)2O         HO(CO)2OH       C2H3,vinyl     
 CH3CN           CH3CO,acetyl    C2H4            C2H4O,ethylen-o CH3CHO,ethanal 
 CH3COOH         OHCH2COOH       C2H5            C2H6            CH3N2CH3       
 C2H5OH          CH3OCH3         CH3O2CH3        CCN             CNC            
 OCCN            C2N2            C2O             *C3             C3H3,1-propynl 
 C3H3,2-propynl  C3H4,allene     C3H4,propyne    C3H4,cyclo-     C3H5,allyl     
 C3H6,propylene  C3H6,cyclo-     C3H6O,propylox  C3H6O,acetone   C3H6O,propanal 
 C3H7,n-propyl   C3H7,i-propyl   C3H8            C3H8O,1propanol C3H8O,2propanol
 CNCOCN          C3O2            *C4             C4H2,butadiyne  C4H4,1,3-cyclo-
 C4H6,butadiene  C4H6,1butyne    C4H6,2butyne    C4H6,cyclo-     C4H8,1-butene  
 C4H8,cis2-buten C4H8,tr2-butene C4H8,isobutene  C4H8,cyclo-     (CH3COOH)2     
 C4H9,n-butyl    C4H9,i-butyl    C4H9,s-butyl    C4H9,t-butyl    C4H10,n-butane 
 C4H10,isobutane C4N2            *C5             C5H6,1,3cyclo-  C5H8,cyclo-    
 C5H10,1-pentene C5H10,cyclo-    C5H11,pentyl    C5H11,t-pentyl  C5H12,n-pentane
 C5H12,i-pentane CH3C(CH3)2CH3   C6H2            C6H5,phenyl     C6H5O,phenoxy  
 C6H6            C6H5OH,phenol   C6H10,cyclo-    C6H12,1-hexene  C6H12,cyclo-   
 C6H13,n-hexyl   C6H14,n-hexane  C7H7,benzyl     C7H8            C7H8O,cresol-mx
 C7H14,1-heptene C7H15,n-heptyl  C7H16,n-heptane C7H16,2-methylh C8H8,styrene   
 C8H10,ethylbenz C8H16,1-octene  C8H17,n-octyl   C8H18,n-octane  C8H18,isooctane
 C9H19,n-nonyl   C10H8,naphthale C10H21,n-decyl  C12H9,o-bipheny C12H10,biphenyl
 HCN             HCO             HCCN            HCCO            HNC            
 HNCO            HNO             HNO2            HNO3            HO2            
 HCHO,formaldehy HCOOH           H2O2            (HCOOH)2        *N             
 NCO             *NH             NH2             NH3             NH2OH          
 NO2             NO3             NCN             N2H2            NH2NO2         
 N2H4            N2O             N2O3            N2O4            N2O5           
 N3              N3H             O3              C(gr)           H2O(cr)        
 H2O(L)         

 NOTE. WEIGHT FRACTION OF FUEL IN TOTAL FUELS AND OF OXIDANT IN TOTAL OXIDANTS





           THEORETICAL ROCKET PERFORMANCE ASSUMING FROZEN COMPOSITION

 Pin =   493.1 PSIA
 CASE =                

             REACTANT                    WT FRACTION      ENERGY      TEMP
                                          (SEE NOTE)     KJ/KG-MOL      K  
 OXIDANT     H2O2(L)                      0.9900000   -190013.250    273.150
 OXIDANT     H2O(L)                       0.0100000   -287717.011    273.150
 FUEL        ABS                          1.0000000     62630.000    273.150

 O/F=    4.00000  %FUEL= 20.000000  R,EQ.RATIO= 1.258388  PHI,EQ.RATIO= 1.521705

                 CHAMBER   THROAT     EXIT
 Pinf/P            1.0000   1.7701   23.406
 P, BAR            34.000   19.208   1.4526
 T, K             2863.32  2608.03  1672.55
 RHO, KG/CU M    3.0474 0 1.8901 0 2.2289-1
 H, KJ/KG        -4332.88 -4941.23 -7067.04
 U, KJ/KG        -5448.57 -5957.46 -7718.75
 G, KJ/KG        -39164.8 -36667.7 -27413.5
 S, KJ/(KG)(K)    12.1649  12.1649  12.1649

 M, (1/n)          21.338   21.338   21.338
 Cp, KJ/(KG)(K)    2.4002   2.3647   2.1545
 GAMMAs            1.1938   1.1973   1.2208
 SON VEL,M/SEC     1154.1   1103.0    892.0
 MACH NUMBER        0.000    1.000    2.622

 PERFORMANCE PARAMETERS

 Ae/At                      1.0000   4.0000
 CSTAR, M/SEC               1630.8   1630.8
 CF                         0.6764   1.4339
 Ivac, M/SEC                2024.3   2617.1
 Isp, M/SEC                 1103.0   2338.4

 MOLE FRACTIONS

 *CO             0.16070   *CO2            0.12678   *H              0.00560
 *H2             0.10284   H2O             0.57667   *NO             0.00033
 *N2             0.01589   *O              0.00032   *OH             0.01016
 *O2             0.00071

  * THERMODYNAMIC PROPERTIES FITTED TO 20000.K

    PRODUCTS WHICH WERE CONSIDERED BUT WHOSE MOLE FRACTIONS
    WERE LESS THAN 5.000000E-06 FOR ALL ASSIGNED CONDITIONS

 *C              *CH             CH2             CH3             CH2OH          
 CH3O            CH4             CH3OH           CH3OOH          *CN            
 CNN             COOH            *C2             C2H             C2H2,acetylene 
 C2H2,vinylidene CH2CO,ketene    O(CH)2O         HO(CO)2OH       C2H3,vinyl     
 CH3CN           CH3CO,acetyl    C2H4            C2H4O,ethylen-o CH3CHO,ethanal 
 CH3COOH         OHCH2COOH       C2H5            C2H6            CH3N2CH3       
 C2H5OH          CH3OCH3         CH3O2CH3        CCN             CNC            
 OCCN            C2N2            C2O             *C3             C3H3,1-propynl 
 C3H3,2-propynl  C3H4,allene     C3H4,propyne    C3H4,cyclo-     C3H5,allyl     
 C3H6,propylene  C3H6,cyclo-     C3H6O,propylox  C3H6O,acetone   C3H6O,propanal 
 C3H7,n-propyl   C3H7,i-propyl   C3H8            C3H8O,1propanol C3H8O,2propanol
 CNCOCN          C3O2            *C4             C4H2,butadiyne  C4H4,1,3-cyclo-
 C4H6,butadiene  C4H6,1butyne    C4H6,2butyne    C4H6,cyclo-     C4H8,1-butene  
 C4H8,cis2-buten C4H8,tr2-butene C4H8,isobutene  C4H8,cyclo-     (CH3COOH)2     
 C4H9,n-butyl    C4H9,i-butyl    C4H9,s-butyl    C4H9,t-butyl    C4H10,n-butane 
 C4H10,isobutane C4N2            *C5             C5H6,1,3cyclo-  C5H8,cyclo-    
 C5H10,1-pentene C5H10,cyclo-    C5H11,pentyl    C5H11,t-pentyl  C5H12,n-pentane
 C5H12,i-pentane CH3C(CH3)2CH3   C6H2            C6H5,phenyl     C6H5O,phenoxy  
 C6H6            C6H5OH,phenol   C6H10,cyclo-    C6H12,1-hexene  C6H12,cyclo-   
 C6H13,n-hexyl   C6H14,n-hexane  C7H7,benzyl     C7H8            C7H8O,cresol-mx
 C7H14,1-heptene C7H15,n-heptyl  C7H16,n-heptane C7H16,2-methylh C8H8,styrene   
 C8H10,ethylbenz C8H16,1-octene  C8H17,n-octyl   C8H18,n-octane  C8H18,isooctane
 C9H19,n-nonyl   C10H8,naphthale C10H21,n-decyl  C12H9,o-bipheny C12H10,biphenyl
 HCN             HCO             HCCN            HCCO            HNC            
 HNCO            HNO             HNO2            HNO3            HO2            
 HCHO,formaldehy HCOOH           H2O2            (HCOOH)2        *N             
 NCO             *NH             NH2             NH3             NH2OH          
 NO2             NO3             NCN             N2H2            NH2NO2         
 N2H4            N2O             N2O3            N2O4            N2O5           
 N3              N3H             O3              C(gr)           H2O(cr)        
 H2O(L)         

 NOTE. WEIGHT FRACTION OF FUEL IN TOTAL FUELS AND OF OXIDANT IN TOTAL OXIDANTS






 POINT ITN      T            H           O           C           N 

   1    2    2865.391      -9.687     -16.909     -14.963     -14.385

 Pinf/Pt = 1.746322
   2    4    2660.111      -9.827     -17.594     -14.942     -14.523

 Pinf/Pt = 1.753563
   2    2    2658.582      -9.828     -17.599     -14.942     -14.524

 Pinf/Pt = 1.753618
   2    1    2658.570      -9.828     -17.599     -14.942     -14.524

   3    4    1775.389     -10.341     -22.756     -13.580     -15.098

   3    2    1771.525     -10.344     -22.791     -13.569     -15.101






              THEORETICAL ROCKET PERFORMANCE ASSUMING EQUILIBRIUM

           COMPOSITION DURING EXPANSION FROM INFINITE AREA COMBUSTOR

 Pin =   522.1 PSIA
 CASE =                

             REACTANT                    WT FRACTION      ENERGY      TEMP
                                          (SEE NOTE)     KJ/KG-MOL      K  
 OXIDANT     H2O2(L)                      0.9900000   -190013.250    273.150
 OXIDANT     H2O(L)                       0.0100000   -287717.011    273.150
 FUEL        ABS                          1.0000000     62630.000    273.150

 O/F=    4.00000  %FUEL= 20.000000  R,EQ.RATIO= 1.258388  PHI,EQ.RATIO= 1.521705

                 CHAMBER   THROAT     EXIT
 Pinf/P            1.0000   1.7536   22.714
 P, BAR            36.000   20.529   1.5849
 T, K             2865.39  2658.57  1771.52
 RHO, KG/CU M    3.2250 0 1.9904 0 2.3169-1
 H, KJ/KG        -4332.88 -4935.94 -7114.57
 U, KJ/KG        -5449.16 -5967.33 -7798.63
 G, KJ/KG        -39126.3 -37218.0 -28625.5
 S, KJ/(KG)(K)    12.1426  12.1426  12.1426

 M, (1/n)          21.343   21.432   21.532
 (dLV/dLP)t      -1.00486 -1.00251 -1.00003
 (dLV/dLT)p        1.1089   1.0602   1.0009
 Cp, KJ/(KG)(K)    3.3778   2.9588   2.2639
 GAMMAs            1.1587   1.1694   1.2060
 SON VEL,M/SEC     1137.3   1098.2    908.3
 MACH NUMBER        0.000    1.000    2.597

 PERFORMANCE PARAMETERS

 Ae/At                      1.0000   4.0000
 CSTAR, M/SEC               1646.9   1646.9
 CF                         0.6669   1.4322
 Ivac, M/SEC                2037.4   2648.7
 Isp, M/SEC                 1098.2   2358.7


 MOLE FRACTIONS

 *CO              0.16070  0.15708  0.13281
 *CO2             0.12684  0.13166  0.15729
 *H               0.00548  0.00347  0.00008
 *H2              0.10278  0.10480  0.12872
 H2O              0.57702  0.58129  0.56487
 *NO              0.00032  0.00014  0.00000
 *N2              0.01589  0.01605  0.01620
 *O               0.00030  0.00010  0.00000
 *OH              0.00997  0.00518  0.00002
 *O2              0.00068  0.00022  0.00000

  * THERMODYNAMIC PROPERTIES FITTED TO 20000.K

    PRODUCTS WHICH WERE CONSIDERED BUT WHOSE MOLE FRACTIONS
    WERE LESS THAN 5.000000E-06 FOR ALL ASSIGNED CONDITIONS

 *C              *CH             CH2             CH3             CH2OH          
 CH3O            CH4             CH3OH           CH3OOH          *CN            
 CNN             COOH            *C2             C2H             C2H2,acetylene 
 C2H2,vinylidene CH2CO,ketene    O(CH)2O         HO(CO)2OH       C2H3,vinyl     
 CH3CN           CH3CO,acetyl    C2H4            C2H4O,ethylen-o CH3CHO,ethanal 
 CH3COOH         OHCH2COOH       C2H5            C2H6            CH3N2CH3       
 C2H5OH          CH3OCH3         CH3O2CH3        CCN             CNC            
 OCCN            C2N2            C2O             *C3             C3H3,1-propynl 
 C3H3,2-propynl  C3H4,allene     C3H4,propyne    C3H4,cyclo-     C3H5,allyl     
 C3H6,propylene  C3H6,cyclo-     C3H6O,propylox  C3H6O,acetone   C3H6O,propanal 
 C3H7,n-propyl   C3H7,i-propyl   C3H8            C3H8O,1propanol C3H8O,2propanol
 CNCOCN          C3O2            *C4             C4H2,butadiyne  C4H4,1,3-cyclo-
 C4H6,butadiene  C4H6,1butyne    C4H6,2butyne    C4H6,cyclo-     C4H8,1-butene  
 C4H8,cis2-buten C4H8,tr2-butene C4H8,isobutene  C4H8,cyclo-     (CH3COOH)2     
 C4H9,n-butyl    C4H9,i-butyl    C4H9,s-butyl    C4H9,t-butyl    C4H10,n-butane 
 C4H10,isobutane C4N2            *C5             C5H6,1,3cyclo-  C5H8,cyclo-    
 C5H10,1-pentene C5H10,cyclo-    C5H11,pentyl    C5H11,t-pentyl  C5H12,n-pentane
 C5H12,i-pentane CH3C(CH3)2CH3   C6H2            C6H5,phenyl     C6H5O,phenoxy  
 C6H6            C6H5OH,phenol   C6H10,cyclo-    C6H12,1-hexene  C6H12,cyclo-   
 C6H13,n-hexyl   C6H14,n-hexane  C7H7,benzyl     C7H8            C7H8O,cresol-mx
 C7H14,1-heptene C7H15,n-heptyl  C7H16,n-heptane C7H16,2-methylh C8H8,styrene   
 C8H10,ethylbenz C8H16,1-octene  C8H17,n-octyl   C8H18,n-octane  C8H18,isooctane
 C9H19,n-nonyl   C10H8,naphthale C10H21,n-decyl  C12H9,o-bipheny C12H10,biphenyl
 HCN             HCO             HCCN            HCCO            HNC            
 HNCO            HNO             HNO2            HNO3            HO2            
 HCHO,formaldehy HCOOH           H2O2            (HCOOH)2        *N             
 NCO             *NH             NH2             NH3             NH2OH          
 NO2             NO3             NCN             N2H2            NH2NO2         
 N2H4            N2O             N2O3            N2O4            N2O5           
 N3              N3H             O3              C(gr)           H2O(cr)        
 H2O(L)         

 NOTE. WEIGHT FRACTION OF FUEL IN TOTAL FUELS AND OF OXIDANT IN TOTAL OXIDANTS





           THEORETICAL ROCKET PERFORMANCE ASSUMING FROZEN COMPOSITION

 Pin =   522.1 PSIA
 CASE =                

             REACTANT                    WT FRACTION      ENERGY      TEMP
                                          (SEE NOTE)     KJ/KG-MOL      K  
 OXIDANT     H2O2(L)                      0.9900000   -190013.250    273.150
 OXIDANT     H2O(L)                       0.0100000   -287717.011    273.150
 FUEL        ABS                          1.0000000     62630.000    273.150

 O/F=    4.00000  %FUEL= 20.000000  R,EQ.RATIO= 1.258388  PHI,EQ.RATIO= 1.521705

                 CHAMBER   THROAT     EXIT
 Pinf/P            1.0000   1.7701   23.402
 P, BAR            36.000   20.338   1.5383
 T, K             2865.39  2610.01  1674.15
 RHO, KG/CU M    3.2250 0 2.0002 0 2.3587-1
 H, KJ/KG        -4332.88 -4941.53 -7068.57
 U, KJ/KG        -5449.16 -5958.32 -7720.77
 G, KJ/KG        -39126.3 -36633.9 -27397.1
 S, KJ/(KG)(K)    12.1426  12.1426  12.1426

 M, (1/n)          21.343   21.343   21.343
 Cp, KJ/(KG)(K)    2.4005   2.3650   2.1549
 GAMMAs            1.1937   1.1972   1.2207
 SON VEL,M/SEC     1154.4   1103.3    892.3
 MACH NUMBER        0.000    1.000    2.622

 PERFORMANCE PARAMETERS

 Ae/At                      1.0000   4.0000
 CSTAR, M/SEC               1631.3   1631.3
 CF                         0.6764   1.4339
 Ivac, M/SEC                2024.9   2617.9
 Isp, M/SEC                 1103.3   2339.1

 MOLE FRACTIONS

 *CO             0.16070   *CO2            0.12684   *H              0.00548
 *H2             0.10278   H2O             0.57702   *NO             0.00032
 *N2             0.01589   *O              0.00030   *OH             0.00997
 *O2             0.00068

  * THERMODYNAMIC PROPERTIES FITTED TO 20000.K

    PRODUCTS WHICH WERE CONSIDERED BUT WHOSE MOLE FRACTIONS
    WERE LESS THAN 5.000000E-06 FOR ALL ASSIGNED CONDITIONS

 *C              *CH             CH2             CH3             CH2OH          
 CH3O            CH4             CH3OH           CH3OOH          *CN            
 CNN             COOH            *C2             C2H             C2H2,acetylene 
 C2H2,vinylidene CH2CO,ketene    O(CH)2O         HO(CO)2OH       C2H3,vinyl     
 CH3CN           CH3CO,acetyl    C2H4            C2H4O,ethylen-o CH3CHO,ethanal 
 CH3COOH         OHCH2COOH       C2H5            C2H6            CH3N2CH3       
 C2H5OH          CH3OCH3         CH3O2CH3        CCN             CNC            
 OCCN            C2N2            C2O             *C3             C3H3,1-propynl 
 C3H3,2-propynl  C3H4,allene     C3H4,propyne    C3H4,cyclo-     C3H5,allyl     
 C3H6,propylene  C3H6,cyclo-     C3H6O,propylox  C3H6O,acetone   C3H6O,propanal 
 C3H7,n-propyl   C3H7,i-propyl   C3H8            C3H8O,1propanol C3H8O,2propanol
 CNCOCN          C3O2            *C4             C4H2,butadiyne  C4H4,1,3-cyclo-
 C4H6,butadiene  C4H6,1butyne    C4H6,2butyne    C4H6,cyclo-     C4H8,1-butene  
 C4H8,cis2-buten C4H8,tr2-butene C4H8,isobutene  C4H8,cyclo-     (CH3COOH)2     
 C4H9,n-butyl    C4H9,i-butyl    C4H9,s-butyl    C4H9,t-butyl    C4H10,n-butane 
 C4H10,isobutane C4N2            *C5             C5H6,1,3cyclo-  C5H8,cyclo-    
 C5H10,1-pentene C5H10,cyclo-    C5H11,pentyl    C5H11,t-pentyl  C5H12,n-pentane
 C5H12,i-pentane CH3C(CH3)2CH3   C6H2            C6H5,phenyl     C6H5O,phenoxy  
 C6H6            C6H5OH,phenol   C6H10,cyclo-    C6H12,1-hexene  C6H12,cyclo-   
 C6H13,n-hexyl   C6H14,n-hexane  C7H7,benzyl     C7H8            C7H8O,cresol-mx
 C7H14,1-heptene C7H15,n-heptyl  C7H16,n-heptane C7H16,2-methylh C8H8,styrene   
 C8H10,ethylbenz C8H16,1-octene  C8H17,n-octyl   C8H18,n-octane  C8H18,isooctane
 C9H19,n-nonyl   C10H8,naphthale C10H21,n-decyl  C12H9,o-bipheny C12H10,biphenyl
 HCN             HCO             HCCN            HCCO            HNC            
 HNCO            HNO             HNO2            HNO3            HO2            
 HCHO,formaldehy HCOOH           H2O2            (HCOOH)2        *N             
 NCO             *NH             NH2             NH3             NH2OH          
 NO2             NO3             NCN             N2H2            NH2NO2         
 N2H4            N2O             N2O3            N2O4            N2O5           
 N3              N3H             O3              C(gr)           H2O(cr)        
 H2O(L)         

 NOTE. WEIGHT FRACTION OF FUEL IN TOTAL FUELS AND OF OXIDANT IN TOTAL OXIDANTS






 POINT ITN      T            H           O           C           N 

   1    2    2867.322      -9.661     -16.902     -14.915     -14.360

 Pinf/Pt = 1.746635
   2    4    2661.095      -9.800     -17.590     -14.892     -14.497

 Pinf/Pt = 1.753841
   2    2    2659.568      -9.801     -17.595     -14.891     -14.498

 Pinf/Pt = 1.753895
   2    1    2659.557      -9.801     -17.595     -14.891     -14.498

   3    4    1775.119     -10.314     -22.759     -13.525     -15.071

   3    2    1771.299     -10.317     -22.794     -13.513     -15.074






              THEORETICAL ROCKET PERFORMANCE ASSUMING EQUILIBRIUM

           COMPOSITION DURING EXPANSION FROM INFINITE AREA COMBUSTOR

 Pin =   551.1 PSIA
 CASE =                

             REACTANT                    WT FRACTION      ENERGY      TEMP
                                          (SEE NOTE)     KJ/KG-MOL      K  
 OXIDANT     H2O2(L)                      0.9900000   -190013.250    273.150
 OXIDANT     H2O(L)                       0.0100000   -287717.011    273.150
 FUEL        ABS                          1.0000000     62630.000    273.150

 O/F=    4.00000  %FUEL= 20.000000  R,EQ.RATIO= 1.258388  PHI,EQ.RATIO= 1.521705

                 CHAMBER   THROAT     EXIT
 Pinf/P            1.0000   1.7539   22.722
 P, BAR            38.000   21.666   1.6724
 T, K             2867.32  2659.56  1771.30
 RHO, KG/CU M    3.4025 0 2.1001 0 2.4452-1
 H, KJ/KG        -4332.88 -4936.34 -7115.11
 U, KJ/KG        -5449.70 -5967.99 -7799.08
 G, KJ/KG        -39089.3 -37174.3 -28586.0
 S, KJ/(KG)(K)    12.1216  12.1216  12.1216

 M, (1/n)          21.347   21.434   21.532
 (dLV/dLP)t      -1.00475 -1.00245 -1.00003
 (dLV/dLT)p        1.1064   1.0587   1.0008
 Cp, KJ/(KG)(K)    3.3558   2.9446   2.2635
 GAMMAs            1.1592   1.1699   1.2061
 SON VEL,M/SEC     1137.8   1098.6    908.2
 MACH NUMBER        0.000    1.000    2.597

 PERFORMANCE PARAMETERS

 Ae/At                      1.0000   4.0000
 CSTAR, M/SEC               1647.0   1647.0
 CF                         0.6670   1.4322
 Ivac, M/SEC                2037.7   2648.9
 Isp, M/SEC                 1098.6   2358.9


 MOLE FRACTIONS

 *CO              0.16069  0.15709  0.13280
 *CO2             0.12689  0.13168  0.15730
 *H               0.00537  0.00339  0.00008
 *H2              0.10273  0.10478  0.12874
 H2O              0.57734  0.58148  0.56486
 *NO              0.00032  0.00014  0.00000
 *N2              0.01590  0.01606  0.01620
 *O               0.00029  0.00010  0.00000
 *OH              0.00979  0.00507  0.00002
 *O2              0.00065  0.00021  0.00000

  * THERMODYNAMIC PROPERTIES FITTED TO 20000.K

    PRODUCTS WHICH WERE CONSIDERED BUT WHOSE MOLE FRACTIONS
    WERE LESS THAN 5.000000E-06 FOR ALL ASSIGNED CONDITIONS

 *C              *CH             CH2             CH3             CH2OH          
 CH3O            CH4             CH3OH           CH3OOH          *CN            
 CNN             COOH            *C2             C2H             C2H2,acetylene 
 C2H2,vinylidene CH2CO,ketene    O(CH)2O         HO(CO)2OH       C2H3,vinyl     
 CH3CN           CH3CO,acetyl    C2H4            C2H4O,ethylen-o CH3CHO,ethanal 
 CH3COOH         OHCH2COOH       C2H5            C2H6            CH3N2CH3       
 C2H5OH          CH3OCH3         CH3O2CH3        CCN             CNC            
 OCCN            C2N2            C2O             *C3             C3H3,1-propynl 
 C3H3,2-propynl  C3H4,allene     C3H4,propyne    C3H4,cyclo-     C3H5,allyl     
 C3H6,propylene  C3H6,cyclo-     C3H6O,propylox  C3H6O,acetone   C3H6O,propanal 
 C3H7,n-propyl   C3H7,i-propyl   C3H8            C3H8O,1propanol C3H8O,2propanol
 CNCOCN          C3O2            *C4             C4H2,butadiyne  C4H4,1,3-cyclo-
 C4H6,butadiene  C4H6,1butyne    C4H6,2butyne    C4H6,cyclo-     C4H8,1-butene  
 C4H8,cis2-buten C4H8,tr2-butene C4H8,isobutene  C4H8,cyclo-     (CH3COOH)2     
 C4H9,n-butyl    C4H9,i-butyl    C4H9,s-butyl    C4H9,t-butyl    C4H10,n-butane 
 C4H10,isobutane C4N2            *C5             C5H6,1,3cyclo-  C5H8,cyclo-    
 C5H10,1-pentene C5H10,cyclo-    C5H11,pentyl    C5H11,t-pentyl  C5H12,n-pentane
 C5H12,i-pentane CH3C(CH3)2CH3   C6H2            C6H5,phenyl     C6H5O,phenoxy  
 C6H6            C6H5OH,phenol   C6H10,cyclo-    C6H12,1-hexene  C6H12,cyclo-   
 C6H13,n-hexyl   C6H14,n-hexane  C7H7,benzyl     C7H8            C7H8O,cresol-mx
 C7H14,1-heptene C7H15,n-heptyl  C7H16,n-heptane C7H16,2-methylh C8H8,styrene   
 C8H10,ethylbenz C8H16,1-octene  C8H17,n-octyl   C8H18,n-octane  C8H18,isooctane
 C9H19,n-nonyl   C10H8,naphthale C10H21,n-decyl  C12H9,o-bipheny C12H10,biphenyl
 HCN             HCO             HCCN            HCCO            HNC            
 HNCO            HNO             HNO2            HNO3            HO2            
 HCHO,formaldehy HCOOH           H2O2            (HCOOH)2        *N             
 NCO             *NH             NH2             NH3             NH2OH          
 NO2             NO3             NCN             N2H2            NH2NO2         
 N2H4            N2O             N2O3            N2O4            N2O5           
 N3              N3H             O3              C(gr)           H2O(cr)        
 H2O(L)         

 NOTE. WEIGHT FRACTION OF FUEL IN TOTAL FUELS AND OF OXIDANT IN TOTAL OXIDANTS





           THEORETICAL ROCKET PERFORMANCE ASSUMING FROZEN COMPOSITION

 Pin =   551.1 PSIA
 CASE =                

             REACTANT                    WT FRACTION      ENERGY      TEMP
                                          (SEE NOTE)     KJ/KG-MOL      K  
 OXIDANT     H2O2(L)                      0.9900000   -190013.250    273.150
 OXIDANT     H2O(L)                       0.0100000   -287717.011    273.150
 FUEL        ABS                          1.0000000     62630.000    273.150

 O/F=    4.00000  %FUEL= 20.000000  R,EQ.RATIO= 1.258388  PHI,EQ.RATIO= 1.521705

                 CHAMBER   THROAT     EXIT
 Pinf/P            1.0000   1.7700   23.398
 P, BAR            38.000   21.468   1.6241
 T, K             2867.32  2611.85  1675.63
 RHO, KG/CU M    3.4025 0 2.1103 0 2.4884-1
 H, KJ/KG        -4332.88 -4941.81 -7070.00
 U, KJ/KG        -5449.70 -5959.13 -7722.66
 G, KJ/KG        -39089.3 -36601.5 -27381.2
 S, KJ/(KG)(K)    12.1216  12.1216  12.1216

 M, (1/n)          21.347   21.347   21.347
 Cp, KJ/(KG)(K)    2.4007   2.3653   2.1554
 GAMMAs            1.1937   1.1971   1.2206
 SON VEL,M/SEC     1154.6   1103.6    892.5
 MACH NUMBER        0.000    1.000    2.621

 PERFORMANCE PARAMETERS

 Ae/At                      1.0000   4.0000
 CSTAR, M/SEC               1631.7   1631.7
 CF                         0.6763   1.4339
 Ivac, M/SEC                2025.4   2618.7
 Isp, M/SEC                 1103.6   2339.7

 MOLE FRACTIONS

 *CO             0.16069   *CO2            0.12689   *H              0.00537
 *H2             0.10273   H2O             0.57734   *NO             0.00032
 *N2             0.01590   *O              0.00029   *OH             0.00979
 *O2             0.00065

  * THERMODYNAMIC PROPERTIES FITTED TO 20000.K

    PRODUCTS WHICH WERE CONSIDERED BUT WHOSE MOLE FRACTIONS
    WERE LESS THAN 5.000000E-06 FOR ALL ASSIGNED CONDITIONS

 *C              *CH             CH2             CH3             CH2OH          
 CH3O            CH4             CH3OH           CH3OOH          *CN            
 CNN             COOH            *C2             C2H             C2H2,acetylene 
 C2H2,vinylidene CH2CO,ketene    O(CH)2O         HO(CO)2OH       C2H3,vinyl     
 CH3CN           CH3CO,acetyl    C2H4            C2H4O,ethylen-o CH3CHO,ethanal 
 CH3COOH         OHCH2COOH       C2H5            C2H6            CH3N2CH3       
 C2H5OH          CH3OCH3         CH3O2CH3        CCN             CNC            
 OCCN            C2N2            C2O             *C3             C3H3,1-propynl 
 C3H3,2-propynl  C3H4,allene     C3H4,propyne    C3H4,cyclo-     C3H5,allyl     
 C3H6,propylene  C3H6,cyclo-     C3H6O,propylox  C3H6O,acetone   C3H6O,propanal 
 C3H7,n-propyl   C3H7,i-propyl   C3H8            C3H8O,1propanol C3H8O,2propanol
 CNCOCN          C3O2            *C4             C4H2,butadiyne  C4H4,1,3-cyclo-
 C4H6,butadiene  C4H6,1butyne    C4H6,2butyne    C4H6,cyclo-     C4H8,1-butene  
 C4H8,cis2-buten C4H8,tr2-butene C4H8,isobutene  C4H8,cyclo-     (CH3COOH)2     
 C4H9,n-butyl    C4H9,i-butyl    C4H9,s-butyl    C4H9,t-butyl    C4H10,n-butane 
 C4H10,isobutane C4N2            *C5             C5H6,1,3cyclo-  C5H8,cyclo-    
 C5H10,1-pentene C5H10,cyclo-    C5H11,pentyl    C5H11,t-pentyl  C5H12,n-pentane
 C5H12,i-pentane CH3C(CH3)2CH3   C6H2            C6H5,phenyl     C6H5O,phenoxy  
 C6H6            C6H5OH,phenol   C6H10,cyclo-    C6H12,1-hexene  C6H12,cyclo-   
 C6H13,n-hexyl   C6H14,n-hexane  C7H7,benzyl     C7H8            C7H8O,cresol-mx
 C7H14,1-heptene C7H15,n-heptyl  C7H16,n-heptane C7H16,2-methylh C8H8,styrene   
 C8H10,ethylbenz C8H16,1-octene  C8H17,n-octyl   C8H18,n-octane  C8H18,isooctane
 C9H19,n-nonyl   C10H8,naphthale C10H21,n-decyl  C12H9,o-bipheny C12H10,biphenyl
 HCN             HCO             HCCN            HCCO            HNC            
 HNCO            HNO             HNO2            HNO3            HO2            
 HCHO,formaldehy HCOOH           H2O2            (HCOOH)2        *N             
 NCO             *NH             NH2             NH3             NH2OH          
 NO2             NO3             NCN             N2H2            NH2NO2         
 N2H4            N2O             N2O3            N2O4            N2O5           
 N3              N3H             O3              C(gr)           H2O(cr)        
 H2O(L)         

 NOTE. WEIGHT FRACTION OF FUEL IN TOTAL FUELS AND OF OXIDANT IN TOTAL OXIDANTS






 POINT ITN      T            H           O           C           N 

   1    2    2869.125      -9.637     -16.896     -14.869     -14.335

 Pinf/Pt = 1.746929
   2    4    2662.010      -9.775     -17.586     -14.844     -14.472

 Pinf/Pt = 1.754102
   2    2    2660.485      -9.776     -17.591     -14.844     -14.473

 Pinf/Pt = 1.754155
   2    1    2660.473      -9.776     -17.591     -14.844     -14.473

   3    4    1774.868     -10.289     -22.761     -13.473     -15.045

   3    2    1771.089     -10.291     -22.795     -13.461     -15.048






              THEORETICAL ROCKET PERFORMANCE ASSUMING EQUILIBRIUM

           COMPOSITION DURING EXPANSION FROM INFINITE AREA COMBUSTOR

 Pin =   580.2 PSIA
 CASE =                

             REACTANT                    WT FRACTION      ENERGY      TEMP
                                          (SEE NOTE)     KJ/KG-MOL      K  
 OXIDANT     H2O2(L)                      0.9900000   -190013.250    273.150
 OXIDANT     H2O(L)                       0.0100000   -287717.011    273.150
 FUEL        ABS                          1.0000000     62630.000    273.150

 O/F=    4.00000  %FUEL= 20.000000  R,EQ.RATIO= 1.258388  PHI,EQ.RATIO= 1.521705

                 CHAMBER   THROAT     EXIT
 Pinf/P            1.0000   1.7542   22.728
 P, BAR            40.000   22.803   1.7599
 T, K             2869.13  2660.47  1771.09
 RHO, KG/CU M    3.5800 0 2.2098 0 2.5734-1
 H, KJ/KG        -4332.88 -4936.70 -7115.62
 U, KJ/KG        -5450.21 -5968.61 -7799.50
 G, KJ/KG        -39053.9 -37132.7 -28548.6
 S, KJ/(KG)(K)    12.1016  12.1016  12.1016

 M, (1/n)          21.350   21.437   21.532
 (dLV/dLP)t      -1.00465 -1.00239 -1.00003
 (dLV/dLT)p        1.1042   1.0573   1.0008
 Cp, KJ/(KG)(K)    3.3353   2.9314   2.2632
 GAMMAs            1.1597   1.1703   1.2061
 SON VEL,M/SEC     1138.3   1098.9    908.2
 MACH NUMBER        0.000    1.000    2.598

 PERFORMANCE PARAMETERS

 Ae/At                     1.00000   4.0000
 CSTAR, M/SEC               1647.2   1647.2
 CF                         0.6672   1.4322
 Ivac, M/SEC                2037.9   2649.0
 Isp, M/SEC                 1098.9   2359.1


 MOLE FRACTIONS

 *CO              0.16069  0.15710  0.13279
 *CO2             0.12695  0.13171  0.15731
 *H               0.00527  0.00332  0.00008
 *H2              0.10269  0.10476  0.12875
 H2O              0.57765  0.58166  0.56485
 *NO              0.00031  0.00013  0.00000
 *N2              0.01590  0.01606  0.01620
 *O               0.00028  0.00009  0.00000
 *OH              0.00962  0.00496  0.00002
 *O2              0.00063  0.00021  0.00000

  * THERMODYNAMIC PROPERTIES FITTED TO 20000.K

    PRODUCTS WHICH WERE CONSIDERED BUT WHOSE MOLE FRACTIONS
    WERE LESS THAN 5.000000E-06 FOR ALL ASSIGNED CONDITIONS

 *C              *CH             CH2             CH3             CH2OH          
 CH3O            CH4             CH3OH           CH3OOH          *CN            
 CNN             COOH            *C2             C2H             C2H2,acetylene 
 C2H2,vinylidene CH2CO,ketene    O(CH)2O         HO(CO)2OH       C2H3,vinyl     
 CH3CN           CH3CO,acetyl    C2H4            C2H4O,ethylen-o CH3CHO,ethanal 
 CH3COOH         OHCH2COOH       C2H5            C2H6            CH3N2CH3       
 C2H5OH          CH3OCH3         CH3O2CH3        CCN             CNC            
 OCCN            C2N2            C2O             *C3             C3H3,1-propynl 
 C3H3,2-propynl  C3H4,allene     C3H4,propyne    C3H4,cyclo-     C3H5,allyl     
 C3H6,propylene  C3H6,cyclo-     C3H6O,propylox  C3H6O,acetone   C3H6O,propanal 
 C3H7,n-propyl   C3H7,i-propyl   C3H8            C3H8O,1propanol C3H8O,2propanol
 CNCOCN          C3O2            *C4             C4H2,butadiyne  C4H4,1,3-cyclo-
 C4H6,butadiene  C4H6,1butyne    C4H6,2butyne    C4H6,cyclo-     C4H8,1-butene  
 C4H8,cis2-buten C4H8,tr2-butene C4H8,isobutene  C4H8,cyclo-     (CH3COOH)2     
 C4H9,n-butyl    C4H9,i-butyl    C4H9,s-butyl    C4H9,t-butyl    C4H10,n-butane 
 C4H10,isobutane C4N2            *C5             C5H6,1,3cyclo-  C5H8,cyclo-    
 C5H10,1-pentene C5H10,cyclo-    C5H11,pentyl    C5H11,t-pentyl  C5H12,n-pentane
 C5H12,i-pentane CH3C(CH3)2CH3   C6H2            C6H5,phenyl     C6H5O,phenoxy  
 C6H6            C6H5OH,phenol   C6H10,cyclo-    C6H12,1-hexene  C6H12,cyclo-   
 C6H13,n-hexyl   C6H14,n-hexane  C7H7,benzyl     C7H8            C7H8O,cresol-mx
 C7H14,1-heptene C7H15,n-heptyl  C7H16,n-heptane C7H16,2-methylh C8H8,styrene   
 C8H10,ethylbenz C8H16,1-octene  C8H17,n-octyl   C8H18,n-octane  C8H18,isooctane
 C9H19,n-nonyl   C10H8,naphthale C10H21,n-decyl  C12H9,o-bipheny C12H10,biphenyl
 HCN             HCO             HCCN            HCCO            HNC            
 HNCO            HNO             HNO2            HNO3            HO2            
 HCHO,formaldehy HCOOH           H2O2            (HCOOH)2        *N             
 NCO             *NH             NH2             NH3             NH2OH          
 NO2             NO3             NCN             N2H2            NH2NO2         
 N2H4            N2O             N2O3            N2O4            N2O5           
 N3              N3H             O3              C(gr)           H2O(cr)        
 H2O(L)         

 NOTE. WEIGHT FRACTION OF FUEL IN TOTAL FUELS AND OF OXIDANT IN TOTAL OXIDANTS





           THEORETICAL ROCKET PERFORMANCE ASSUMING FROZEN COMPOSITION

 Pin =   580.2 PSIA
 CASE =                

             REACTANT                    WT FRACTION      ENERGY      TEMP
                                          (SEE NOTE)     KJ/KG-MOL      K  
 OXIDANT     H2O2(L)                      0.9900000   -190013.250    273.150
 OXIDANT     H2O(L)                       0.0100000   -287717.011    273.150
 FUEL        ABS                          1.0000000     62630.000    273.150

 O/F=    4.00000  %FUEL= 20.000000  R,EQ.RATIO= 1.258388  PHI,EQ.RATIO= 1.521705

                 CHAMBER   THROAT     EXIT
 Pinf/P            1.0000   1.7700   23.394
 P, BAR            40.000   22.599   1.7098
 T, K             2869.13  2613.57  1677.01
 RHO, KG/CU M    3.5800 0 2.2203 0 2.6181-1
 H, KJ/KG        -4332.88 -4942.07 -7071.33
 U, KJ/KG        -5450.21 -5959.88 -7724.41
 G, KJ/KG        -39053.9 -36570.4 -27365.9
 S, KJ/(KG)(K)    12.1016  12.1016  12.1016

 M, (1/n)          21.350   21.350   21.350
 Cp, KJ/(KG)(K)    2.4010   2.3656   2.1558
 GAMMAs            1.1936   1.1971   1.2205
 SON VEL,M/SEC     1154.8   1103.8    892.8
 MACH NUMBER        0.000    1.000    2.621

 PERFORMANCE PARAMETERS

 Ae/At                      1.0000   4.0000
 CSTAR, M/SEC               1632.1   1632.1
 CF                         0.6763   1.4339
 Ivac, M/SEC                2025.9   2619.3
 Isp, M/SEC                 1103.8   2340.3

 MOLE FRACTIONS

 *CO             0.16069   *CO2            0.12695   *H              0.00527
 *H2             0.10269   H2O             0.57765   *NO             0.00031
 *N2             0.01590   *O              0.00028   *OH             0.00962
 *O2             0.00063

  * THERMODYNAMIC PROPERTIES FITTED TO 20000.K

    PRODUCTS WHICH WERE CONSIDERED BUT WHOSE MOLE FRACTIONS
    WERE LESS THAN 5.000000E-06 FOR ALL ASSIGNED CONDITIONS

 *C              *CH             CH2             CH3             CH2OH          
 CH3O            CH4             CH3OH           CH3OOH          *CN            
 CNN             COOH            *C2             C2H             C2H2,acetylene 
 C2H2,vinylidene CH2CO,ketene    O(CH)2O         HO(CO)2OH       C2H3,vinyl     
 CH3CN           CH3CO,acetyl    C2H4            C2H4O,ethylen-o CH3CHO,ethanal 
 CH3COOH         OHCH2COOH       C2H5            C2H6            CH3N2CH3       
 C2H5OH          CH3OCH3         CH3O2CH3        CCN             CNC            
 OCCN            C2N2            C2O             *C3             C3H3,1-propynl 
 C3H3,2-propynl  C3H4,allene     C3H4,propyne    C3H4,cyclo-     C3H5,allyl     
 C3H6,propylene  C3H6,cyclo-     C3H6O,propylox  C3H6O,acetone   C3H6O,propanal 
 C3H7,n-propyl   C3H7,i-propyl   C3H8            C3H8O,1propanol C3H8O,2propanol
 CNCOCN          C3O2            *C4             C4H2,butadiyne  C4H4,1,3-cyclo-
 C4H6,butadiene  C4H6,1butyne    C4H6,2butyne    C4H6,cyclo-     C4H8,1-butene  
 C4H8,cis2-buten C4H8,tr2-butene C4H8,isobutene  C4H8,cyclo-     (CH3COOH)2     
 C4H9,n-butyl    C4H9,i-butyl    C4H9,s-butyl    C4H9,t-butyl    C4H10,n-butane 
 C4H10,isobutane C4N2            *C5             C5H6,1,3cyclo-  C5H8,cyclo-    
 C5H10,1-pentene C5H10,cyclo-    C5H11,pentyl    C5H11,t-pentyl  C5H12,n-pentane
 C5H12,i-pentane CH3C(CH3)2CH3   C6H2            C6H5,phenyl     C6H5O,phenoxy  
 C6H6            C6H5OH,phenol   C6H10,cyclo-    C6H12,1-hexene  C6H12,cyclo-   
 C6H13,n-hexyl   C6H14,n-hexane  C7H7,benzyl     C7H8            C7H8O,cresol-mx
 C7H14,1-heptene C7H15,n-heptyl  C7H16,n-heptane C7H16,2-methylh C8H8,styrene   
 C8H10,ethylbenz C8H16,1-octene  C8H17,n-octyl   C8H18,n-octane  C8H18,isooctane
 C9H19,n-nonyl   C10H8,naphthale C10H21,n-decyl  C12H9,o-bipheny C12H10,biphenyl
 HCN             HCO             HCCN            HCCO            HNC            
 HNCO            HNO             HNO2            HNO3            HO2            
 HCHO,formaldehy HCOOH           H2O2            (HCOOH)2        *N             
 NCO             *NH             NH2             NH3             NH2OH          
 NO2             NO3             NCN             N2H2            NH2NO2         
 N2H4            N2O             N2O3            N2O4            N2O5           
 N3              N3H             O3              C(gr)           H2O(cr)        
 H2O(L)         

 NOTE. WEIGHT FRACTION OF FUEL IN TOTAL FUELS AND OF OXIDANT IN TOTAL OXIDANTS






 POINT ITN      T            H           O           C           N 

   1    2    2870.816      -9.614     -16.890     -14.826     -14.311

 Pinf/Pt = 1.747208
   2    4    2662.862      -9.752     -17.582     -14.798     -14.448

 Pinf/Pt = 1.754346
   2    2    2661.340      -9.753     -17.588     -14.798     -14.449

 Pinf/Pt = 1.754399
   2    1    2661.328      -9.753     -17.588     -14.798     -14.449

   3    4    1774.632     -10.264     -22.763     -13.423     -15.021

   3    2    1770.894     -10.266     -22.797     -13.411     -15.024






              THEORETICAL ROCKET PERFORMANCE ASSUMING EQUILIBRIUM

           COMPOSITION DURING EXPANSION FROM INFINITE AREA COMBUSTOR

 Pin =   609.2 PSIA
 CASE =                

             REACTANT                    WT FRACTION      ENERGY      TEMP
                                          (SEE NOTE)     KJ/KG-MOL      K  
 OXIDANT     H2O2(L)                      0.9900000   -190013.250    273.150
 OXIDANT     H2O(L)                       0.0100000   -287717.011    273.150
 FUEL        ABS                          1.0000000     62630.000    273.150

 O/F=    4.00000  %FUEL= 20.000000  R,EQ.RATIO= 1.258388  PHI,EQ.RATIO= 1.521705

                 CHAMBER   THROAT     EXIT
 Pinf/P            1.0000   1.7544   22.734
 P, BAR            42.000   23.940   1.8474
 T, K             2870.82  2661.33  1770.89
 RHO, KG/CU M    3.7574 0 2.3194 0 2.7017-1
 H, KJ/KG        -4332.88 -4937.05 -7116.08
 U, KJ/KG        -5450.68 -5969.18 -7799.89
 G, KJ/KG        -39019.8 -37092.8 -28513.1
 S, KJ/(KG)(K)    12.0826  12.0826  12.0826

 M, (1/n)          21.354   21.439   21.532
 (dLV/dLP)t      -1.00456 -1.00234 -1.00002
 (dLV/dLT)p        1.1020   1.0560   1.0008
 Cp, KJ/(KG)(K)    3.3162   2.9192   2.2629
 GAMMAs            1.1601   1.1707   1.2061
 SON VEL,M/SEC     1138.8   1099.2    908.2
 MACH NUMBER        0.000    1.000    2.598

 PERFORMANCE PARAMETERS

 Ae/At                      1.0000   4.0000
 CSTAR, M/SEC               1647.3   1647.3
 CF                         0.6673   1.4322
 Ivac, M/SEC                2038.2   2649.2
 Isp, M/SEC                 1099.2   2359.3


 MOLE FRACTIONS

 *CO              0.16069  0.15710  0.13278
 *CO2             0.12699  0.13173  0.15732
 *H               0.00517  0.00325  0.00007
 *H2              0.10264  0.10474  0.12876
 H2O              0.57793  0.58183  0.56485
 *NO              0.00031  0.00013  0.00000
 *N2              0.01591  0.01606  0.01620
 *O               0.00027  0.00009  0.00000
 *OH              0.00946  0.00486  0.00002
 *O2              0.00061  0.00020  0.00000

  * THERMODYNAMIC PROPERTIES FITTED TO 20000.K

    PRODUCTS WHICH WERE CONSIDERED BUT WHOSE MOLE FRACTIONS
    WERE LESS THAN 5.000000E-06 FOR ALL ASSIGNED CONDITIONS

 *C              *CH             CH2             CH3             CH2OH          
 CH3O            CH4             CH3OH           CH3OOH          *CN            
 CNN             COOH            *C2             C2H             C2H2,acetylene 
 C2H2,vinylidene CH2CO,ketene    O(CH)2O         HO(CO)2OH       C2H3,vinyl     
 CH3CN           CH3CO,acetyl    C2H4            C2H4O,ethylen-o CH3CHO,ethanal 
 CH3COOH         OHCH2COOH       C2H5            C2H6            CH3N2CH3       
 C2H5OH          CH3OCH3         CH3O2CH3        CCN             CNC            
 OCCN            C2N2            C2O             *C3             C3H3,1-propynl 
 C3H3,2-propynl  C3H4,allene     C3H4,propyne    C3H4,cyclo-     C3H5,allyl     
 C3H6,propylene  C3H6,cyclo-     C3H6O,propylox  C3H6O,acetone   C3H6O,propanal 
 C3H7,n-propyl   C3H7,i-propyl   C3H8            C3H8O,1propanol C3H8O,2propanol
 CNCOCN          C3O2            *C4             C4H2,butadiyne  C4H4,1,3-cyclo-
 C4H6,butadiene  C4H6,1butyne    C4H6,2butyne    C4H6,cyclo-     C4H8,1-butene  
 C4H8,cis2-buten C4H8,tr2-butene C4H8,isobutene  C4H8,cyclo-     (CH3COOH)2     
 C4H9,n-butyl    C4H9,i-butyl    C4H9,s-butyl    C4H9,t-butyl    C4H10,n-butane 
 C4H10,isobutane C4N2            *C5             C5H6,1,3cyclo-  C5H8,cyclo-    
 C5H10,1-pentene C5H10,cyclo-    C5H11,pentyl    C5H11,t-pentyl  C5H12,n-pentane
 C5H12,i-pentane CH3C(CH3)2CH3   C6H2            C6H5,phenyl     C6H5O,phenoxy  
 C6H6            C6H5OH,phenol   C6H10,cyclo-    C6H12,1-hexene  C6H12,cyclo-   
 C6H13,n-hexyl   C6H14,n-hexane  C7H7,benzyl     C7H8            C7H8O,cresol-mx
 C7H14,1-heptene C7H15,n-heptyl  C7H16,n-heptane C7H16,2-methylh C8H8,styrene   
 C8H10,ethylbenz C8H16,1-octene  C8H17,n-octyl   C8H18,n-octane  C8H18,isooctane
 C9H19,n-nonyl   C10H8,naphthale C10H21,n-decyl  C12H9,o-bipheny C12H10,biphenyl
 HCN             HCO             HCCN            HCCO            HNC            
 HNCO            HNO             HNO2            HNO3            HO2            
 HCHO,formaldehy HCOOH           H2O2            (HCOOH)2        *N             
 NCO             *NH             NH2             NH3             NH2OH          
 NO2             NO3             NCN             N2H2            NH2NO2         
 N2H4            N2O             N2O3            N2O4            N2O5           
 N3              N3H             O3              C(gr)           H2O(cr)        
 H2O(L)         

 NOTE. WEIGHT FRACTION OF FUEL IN TOTAL FUELS AND OF OXIDANT IN TOTAL OXIDANTS





           THEORETICAL ROCKET PERFORMANCE ASSUMING FROZEN COMPOSITION

 Pin =   609.2 PSIA
 CASE =                

             REACTANT                    WT FRACTION      ENERGY      TEMP
                                          (SEE NOTE)     KJ/KG-MOL      K  
 OXIDANT     H2O2(L)                      0.9900000   -190013.250    273.150
 OXIDANT     H2O(L)                       0.0100000   -287717.011    273.150
 FUEL        ABS                          1.0000000     62630.000    273.150

 O/F=    4.00000  %FUEL= 20.000000  R,EQ.RATIO= 1.258388  PHI,EQ.RATIO= 1.521705

                 CHAMBER   THROAT     EXIT
 Pinf/P            1.0000   1.7700   23.391
 P, BAR            42.000   23.729   1.7956
 T, K             2870.82  2615.18  1678.31
 RHO, KG/CU M    3.7574 0 2.3303 0 2.7477-1
 H, KJ/KG        -4332.88 -4942.32 -7072.58
 U, KJ/KG        -5450.68 -5960.59 -7726.06
 G, KJ/KG        -39019.8 -36540.5 -27351.0
 S, KJ/(KG)(K)    12.0826  12.0826  12.0826

 M, (1/n)          21.354   21.354   21.354
 Cp, KJ/(KG)(K)    2.4012   2.3658   2.1562
 GAMMAs            1.1935   1.1970   1.2204
 SON VEL,M/SEC     1155.1   1104.0    893.0
 MACH NUMBER        0.000    1.000    2.621

 PERFORMANCE PARAMETERS

 Ae/At                     1.00000   4.0000
 CSTAR, M/SEC               1632.5   1632.5
 CF                         0.6763   1.4339
 Ivac, M/SEC                2026.3   2620.0
 Isp, M/SEC                 1104.0   2340.8

 MOLE FRACTIONS

 *CO             0.16069   *CO2            0.12699   *H              0.00517
 *H2             0.10264   H2O             0.57793   *NO             0.00031
 *N2             0.01591   *O              0.00027   *OH             0.00946
 *O2             0.00061

  * THERMODYNAMIC PROPERTIES FITTED TO 20000.K

    PRODUCTS WHICH WERE CONSIDERED BUT WHOSE MOLE FRACTIONS
    WERE LESS THAN 5.000000E-06 FOR ALL ASSIGNED CONDITIONS

 *C              *CH             CH2             CH3             CH2OH          
 CH3O            CH4             CH3OH           CH3OOH          *CN            
 CNN             COOH            *C2             C2H             C2H2,acetylene 
 C2H2,vinylidene CH2CO,ketene    O(CH)2O         HO(CO)2OH       C2H3,vinyl     
 CH3CN           CH3CO,acetyl    C2H4            C2H4O,ethylen-o CH3CHO,ethanal 
 CH3COOH         OHCH2COOH       C2H5            C2H6            CH3N2CH3       
 C2H5OH          CH3OCH3         CH3O2CH3        CCN             CNC            
 OCCN            C2N2            C2O             *C3             C3H3,1-propynl 
 C3H3,2-propynl  C3H4,allene     C3H4,propyne    C3H4,cyclo-     C3H5,allyl     
 C3H6,propylene  C3H6,cyclo-     C3H6O,propylox  C3H6O,acetone   C3H6O,propanal 
 C3H7,n-propyl   C3H7,i-propyl   C3H8            C3H8O,1propanol C3H8O,2propanol
 CNCOCN          C3O2            *C4             C4H2,butadiyne  C4H4,1,3-cyclo-
 C4H6,butadiene  C4H6,1butyne    C4H6,2butyne    C4H6,cyclo-     C4H8,1-butene  
 C4H8,cis2-buten C4H8,tr2-butene C4H8,isobutene  C4H8,cyclo-     (CH3COOH)2     
 C4H9,n-butyl    C4H9,i-butyl    C4H9,s-butyl    C4H9,t-butyl    C4H10,n-butane 
 C4H10,isobutane C4N2            *C5             C5H6,1,3cyclo-  C5H8,cyclo-    
 C5H10,1-pentene C5H10,cyclo-    C5H11,pentyl    C5H11,t-pentyl  C5H12,n-pentane
 C5H12,i-pentane CH3C(CH3)2CH3   C6H2            C6H5,phenyl     C6H5O,phenoxy  
 C6H6            C6H5OH,phenol   C6H10,cyclo-    C6H12,1-hexene  C6H12,cyclo-   
 C6H13,n-hexyl   C6H14,n-hexane  C7H7,benzyl     C7H8            C7H8O,cresol-mx
 C7H14,1-heptene C7H15,n-heptyl  C7H16,n-heptane C7H16,2-methylh C8H8,styrene   
 C8H10,ethylbenz C8H16,1-octene  C8H17,n-octyl   C8H18,n-octane  C8H18,isooctane
 C9H19,n-nonyl   C10H8,naphthale C10H21,n-decyl  C12H9,o-bipheny C12H10,biphenyl
 HCN             HCO             HCCN            HCCO            HNC            
 HNCO            HNO             HNO2            HNO3            HO2            
 HCHO,formaldehy HCOOH           H2O2            (HCOOH)2        *N             
 NCO             *NH             NH2             NH3             NH2OH          
 NO2             NO3             NCN             N2H2            NH2NO2         
 N2H4            N2O             N2O3            N2O4            N2O5           
 N3              N3H             O3              C(gr)           H2O(cr)        
 H2O(L)         

 NOTE. WEIGHT FRACTION OF FUEL IN TOTAL FUELS AND OF OXIDANT IN TOTAL OXIDANTS






 POINT ITN      T            H           O           C           N 

   1    2    2872.404      -9.592     -16.884     -14.785     -14.289

 Pinf/Pt = 1.747472
   2    4    2663.659      -9.729     -17.579     -14.755     -14.425

 Pinf/Pt = 1.754576
   2    2    2662.139      -9.730     -17.585     -14.754     -14.426

 Pinf/Pt = 1.754628
   2    1    2662.128      -9.730     -17.585     -14.754     -14.426

   3    4    1774.411     -10.241     -22.765     -13.375     -14.998

   3    2    1770.711     -10.243     -22.799     -13.364     -15.000






              THEORETICAL ROCKET PERFORMANCE ASSUMING EQUILIBRIUM

           COMPOSITION DURING EXPANSION FROM INFINITE AREA COMBUSTOR

 Pin =   638.2 PSIA
 CASE =                

             REACTANT                    WT FRACTION      ENERGY      TEMP
                                          (SEE NOTE)     KJ/KG-MOL      K  
 OXIDANT     H2O2(L)                      0.9900000   -190013.250    273.150
 OXIDANT     H2O(L)                       0.0100000   -287717.011    273.150
 FUEL        ABS                          1.0000000     62630.000    273.150

 O/F=    4.00000  %FUEL= 20.000000  R,EQ.RATIO= 1.258388  PHI,EQ.RATIO= 1.521705

                 CHAMBER   THROAT     EXIT
 Pinf/P            1.0000   1.7546   22.740
 P, BAR            44.000   25.077   1.9349
 T, K             2872.40  2662.13  1770.71
 RHO, KG/CU M    3.9347 0 2.4291 0 2.8299-1
 H, KJ/KG        -4332.88 -4937.37 -7116.52
 U, KJ/KG        -5451.13 -5969.73 -7800.26
 G, KJ/KG        -38986.9 -37054.6 -28479.2
 S, KJ/(KG)(K)    12.0645  12.0645  12.0645

 M, (1/n)          21.357   21.441   21.532
 (dLV/dLP)t      -1.00447 -1.00229 -1.00002
 (dLV/dLT)p        1.1000   1.0548   1.0008
 Cp, KJ/(KG)(K)    3.2982   2.9077   2.2627
 GAMMAs            1.1606   1.1711   1.2061
 SON VEL,M/SEC     1139.2   1099.5    908.1
 MACH NUMBER        0.000    1.000    2.598

 PERFORMANCE PARAMETERS

 Ae/At                      1.0000   4.0000
 CSTAR, M/SEC               1647.4   1647.4
 CF                         0.6674   1.4323
 Ivac, M/SEC                2038.4   2649.3
 Isp, M/SEC                 1099.5   2359.5


 MOLE FRACTIONS

 *CO              0.16069  0.15711  0.13277
 *CO2             0.12704  0.13175  0.15733
 *H               0.00507  0.00318  0.00007
 *H2              0.10260  0.10472  0.12876
 H2O              0.57820  0.58199  0.56484
 *NO              0.00031  0.00013  0.00000
 *N2              0.01591  0.01607  0.01620
 *O               0.00026  0.00008  0.00000
 *OH              0.00931  0.00477  0.00002
 *O2              0.00059  0.00019  0.00000

  * THERMODYNAMIC PROPERTIES FITTED TO 20000.K

    PRODUCTS WHICH WERE CONSIDERED BUT WHOSE MOLE FRACTIONS
    WERE LESS THAN 5.000000E-06 FOR ALL ASSIGNED CONDITIONS

 *C              *CH             CH2             CH3             CH2OH          
 CH3O            CH4             CH3OH           CH3OOH          *CN            
 CNN             COOH            *C2             C2H             C2H2,acetylene 
 C2H2,vinylidene CH2CO,ketene    O(CH)2O         HO(CO)2OH       C2H3,vinyl     
 CH3CN           CH3CO,acetyl    C2H4            C2H4O,ethylen-o CH3CHO,ethanal 
 CH3COOH         OHCH2COOH       C2H5            C2H6            CH3N2CH3       
 C2H5OH          CH3OCH3         CH3O2CH3        CCN             CNC            
 OCCN            C2N2            C2O             *C3             C3H3,1-propynl 
 C3H3,2-propynl  C3H4,allene     C3H4,propyne    C3H4,cyclo-     C3H5,allyl     
 C3H6,propylene  C3H6,cyclo-     C3H6O,propylox  C3H6O,acetone   C3H6O,propanal 
 C3H7,n-propyl   C3H7,i-propyl   C3H8            C3H8O,1propanol C3H8O,2propanol
 CNCOCN          C3O2            *C4             C4H2,butadiyne  C4H4,1,3-cyclo-
 C4H6,butadiene  C4H6,1butyne    C4H6,2butyne    C4H6,cyclo-     C4H8,1-butene  
 C4H8,cis2-buten C4H8,tr2-butene C4H8,isobutene  C4H8,cyclo-     (CH3COOH)2     
 C4H9,n-butyl    C4H9,i-butyl    C4H9,s-butyl    C4H9,t-butyl    C4H10,n-butane 
 C4H10,isobutane C4N2            *C5             C5H6,1,3cyclo-  C5H8,cyclo-    
 C5H10,1-pentene C5H10,cyclo-    C5H11,pentyl    C5H11,t-pentyl  C5H12,n-pentane
 C5H12,i-pentane CH3C(CH3)2CH3   C6H2            C6H5,phenyl     C6H5O,phenoxy  
 C6H6            C6H5OH,phenol   C6H10,cyclo-    C6H12,1-hexene  C6H12,cyclo-   
 C6H13,n-hexyl   C6H14,n-hexane  C7H7,benzyl     C7H8            C7H8O,cresol-mx
 C7H14,1-heptene C7H15,n-heptyl  C7H16,n-heptane C7H16,2-methylh C8H8,styrene   
 C8H10,ethylbenz C8H16,1-octene  C8H17,n-octyl   C8H18,n-octane  C8H18,isooctane
 C9H19,n-nonyl   C10H8,naphthale C10H21,n-decyl  C12H9,o-bipheny C12H10,biphenyl
 HCN             HCO             HCCN            HCCO            HNC            
 HNCO            HNO             HNO2            HNO3            HO2            
 HCHO,formaldehy HCOOH           H2O2            (HCOOH)2        *N             
 NCO             *NH             NH2             NH3             NH2OH          
 NO2             NO3             NCN             N2H2            NH2NO2         
 N2H4            N2O             N2O3            N2O4            N2O5           
 N3              N3H             O3              C(gr)           H2O(cr)        
 H2O(L)         

[...]
 HCCO            HNC             HNCO            HNO             HNO2           
 HNO3            HO2             *H2             HCHO,formaldehy HCOOH          
 H2O2            (HCOOH)2        *N              NCO             *NH            
 NH2             NH3             NH2OH           NO2             NO3            
 NCN             N2H2            NH2NO2          N2H4            N2O            
 N2O3            N2O4            N2O5            N3              N3H            
 *O              O3              C(gr)           H2O(cr)         H2O(L)         

 NOTE. WEIGHT FRACTION OF FUEL IN TOTAL FUELS AND OF OXIDANT IN TOTAL OXIDANTS






 POINT ITN      T            H           O           C           N 

   1    1    1405.466     -15.436     -12.509     -38.977     -14.580

 Pinf/Pt = 1.793857
   2    3    1254.498     -16.709     -12.624     -42.850     -14.699

 Pinf/Pt = 1.800471
   2    2    1253.585     -16.718     -12.625     -42.877     -14.700

 Pinf/Pt = 1.800512
   2    1    1253.580     -16.718     -12.625     -42.877     -14.700

   3    4     721.287     -25.457     -13.193     -70.058     -15.304

   3    2     706.468     -25.888     -13.216     -71.416     -15.328

   3    1     706.505     -25.887     -13.216     -71.412     -15.328






              THEORETICAL ROCKET PERFORMANCE ASSUMING EQUILIBRIUM

           COMPOSITION DURING EXPANSION FROM INFINITE AREA COMBUSTOR

 Pin =   609.2 PSIA
 CASE =                

             REACTANT                    WT FRACTION      ENERGY      TEMP
                                          (SEE NOTE)     KJ/KG-MOL      K  
 OXIDANT     H2O2(L)                      0.9900000   -190013.250    273.150
 OXIDANT     H2O(L)                       0.0100000   -287717.011    273.150
 FUEL        ABS                          1.0000000     62630.000    273.150

 O/F=   99.00000  %FUEL=  1.000000  R,EQ.RATIO= 0.535174  PHI,EQ.RATIO= 0.061483

                 CHAMBER   THROAT     EXIT
 Pinf/P            1.0000   1.8005   26.523
 P, BAR            42.000   23.327   1.5835
 T, K             1405.47  1253.58   706.51
 RHO, KG/CU M    8.1646 0 5.0841 0 6.1238-1
 H, KJ/KG        -5622.20 -5908.14 -6853.98
 U, KJ/KG        -6136.62 -6366.96 -7112.57
 G, KJ/KG        -19570.2 -18348.8 -13865.4
 S, KJ/(KG)(K)     9.9241   9.9241   9.9241

 M, (1/n)          22.717   22.717   22.717
 (dLV/dLP)t      -1.00000 -1.00000 -1.00000
 (dLV/dLT)p        1.0001   1.0000   1.0000
 Cp, KJ/(KG)(K)    1.9137   1.8514   1.6008
 GAMMAs            1.2366   1.2464   1.2964
 SON VEL,M/SEC      797.6    756.2    579.0
 MACH NUMBER        0.000    1.000    2.711

 PERFORMANCE PARAMETERS

 Ae/At                      1.0000   4.0000
 CSTAR, M/SEC               1092.4   1092.4
 CF                         0.6923   1.4368
 Ivac, M/SEC                1363.0   1734.3
 Isp, M/SEC                  756.2   1569.6


 MOLE FRACTIONS

 *CO2             0.01530  0.01530  0.01530
 H2O              0.67665  0.67668  0.67668
 *NO              0.00003  0.00001  0.00000
 *N2              0.00084  0.00085  0.00085
 *OH              0.00004  0.00001  0.00000
 *O2              0.30713  0.30715  0.30716

  * THERMODYNAMIC PROPERTIES FITTED TO 20000.K

    PRODUCTS WHICH WERE CONSIDERED BUT WHOSE MOLE FRACTIONS
    WERE LESS THAN 5.000000E-06 FOR ALL ASSIGNED CONDITIONS

 *C              *CH             CH2             CH3             CH2OH          
 CH3O            CH4             CH3OH           CH3OOH          *CN            
 CNN             *CO             COOH            *C2             C2H            
 C2H2,acetylene  C2H2,vinylidene CH2CO,ketene    O(CH)2O         HO(CO)2OH      
 C2H3,vinyl      CH3CN           CH3CO,acetyl    C2H4            C2H4O,ethylen-o
 CH3CHO,ethanal  CH3COOH         OHCH2COOH       C2H5            C2H6           
 CH3N2CH3        C2H5OH          CH3OCH3         CH3O2CH3        CCN            
 CNC             OCCN            C2N2            C2O             *C3            
 C3H3,1-propynl  C3H3,2-propynl  C3H4,allene     C3H4,propyne    C3H4,cyclo-    
 C3H5,allyl      C3H6,propylene  C3H6,cyclo-     C3H6O,propylox  C3H6O,acetone  
 C3H6O,propanal  C3H7,n-propyl   C3H7,i-propyl   C3H8            C3H8O,1propanol
 C3H8O,2propanol CNCOCN          C3O2            *C4             C4H2,butadiyne 
 C4H4,1,3-cyclo- C4H6,butadiene  C4H6,1butyne    C4H6,2butyne    C4H6,cyclo-    
 C4H8,1-butene   C4H8,cis2-buten C4H8,tr2-butene C4H8,isobutene  C4H8,cyclo-    
 (CH3COOH)2      C4H9,n-butyl    C4H9,i-butyl    C4H9,s-butyl    C4H9,t-butyl   
 C4H10,n-butane  C4H10,isobutane C4N2            *C5             C5H6,1,3cyclo- 
 C5H8,cyclo-     C5H10,1-pentene C5H10,cyclo-    C5H11,pentyl    C5H11,t-pentyl 
 C5H12,n-pentane C5H12,i-pentane CH3C(CH3)2CH3   C6H2            C6H5,phenyl    
 C6H5O,phenoxy   C6H6            C6H5OH,phenol   C6H10,cyclo-    C6H12,1-hexene 
 C6H12,cyclo-    C6H13,n-hexyl   C6H14,n-hexane  C7H7,benzyl     C7H8           
 C7H8O,cresol-mx C7H14,1-heptene C7H15,n-heptyl  C7H16,n-heptane C7H16,2-methylh
 C8H8,styrene    C8H10,ethylbenz C8H16,1-octene  C8H17,n-octyl   C8H18,n-octane 
 C8H18,isooctane C9H19,n-nonyl   C10H8,naphthale C10H21,n-decyl  C12H9,o-bipheny
 C12H10,biphenyl *H              HCN             HCO             HCCN           
 HCCO            HNC             HNCO            HNO             HNO2           
 HNO3            HO2             *H2             HCHO,formaldehy HCOOH          
 H2O2            (HCOOH)2        *N              NCO             *NH            
 NH2             NH3             NH2OH           NO2             NO3            
 NCN             N2H2            NH2NO2          N2H4            N2O            
 N2O3            N2O4            N2O5            N3              N3H            
 *O              O3              C(gr)           H2O(cr)         H2O(L)         

 NOTE. WEIGHT FRACTION OF FUEL IN TOTAL FUELS AND OF OXIDANT IN TOTAL OXIDANTS





           THEORETICAL ROCKET PERFORMANCE ASSUMING FROZEN COMPOSITION

 Pin =   609.2 PSIA
 CASE =                

             REACTANT                    WT FRACTION      ENERGY      TEMP
                                          (SEE NOTE)     KJ/KG-MOL      K  
 OXIDANT     H2O2(L)                      0.9900000   -190013.250    273.150
 OXIDANT     H2O(L)                       0.0100000   -287717.011    273.150
 FUEL        ABS                          1.0000000     62630.000    273.150

 O/F=   99.00000  %FUEL=  1.000000  R,EQ.RATIO= 0.535174  PHI,EQ.RATIO= 0.061483

                 CHAMBER   THROAT     EXIT
 Pinf/P            1.0000   1.8006   26.525
 P, BAR            42.000   23.325   1.5834
 T, K             1405.47  1253.40   706.34
 RHO, KG/CU M    8.1646 0 5.0845 0 6.1248-1
 H, KJ/KG        -5622.20 -5908.15 -6853.81
 U, KJ/KG        -6136.62 -6366.91 -7112.34
 G, KJ/KG        -19570.2 -18347.0 -13863.6
 S, KJ/(KG)(K)     9.9241   9.9241   9.9241

 M, (1/n)          22.717   22.717   22.717
 Cp, KJ/(KG)(K)    1.9099   1.8501   1.6007
 GAMMAs            1.2371   1.2466   1.2964
 SON VEL,M/SEC      797.7    756.2    578.9
 MACH NUMBER        0.000    1.000    2.711

 PERFORMANCE PARAMETERS

 Ae/At                      1.0000   4.0000
 CSTAR, M/SEC               1092.3   1092.3
 CF                         0.6923   1.4368
 Ivac, M/SEC                1362.9   1734.2
 Isp, M/SEC                  756.2   1569.5

 MOLE FRACTIONS

 *CO2            0.01530   H2O             0.67665   *NO             0.00003
 *N2             0.00084   *OH             0.00004   *O2             0.30713

  * THERMODYNAMIC PROPERTIES FITTED TO 20000.K

    PRODUCTS WHICH WERE CONSIDERED BUT WHOSE MOLE FRACTIONS
    WERE LESS THAN 5.000000E-06 FOR ALL ASSIGNED CONDITIONS

 *C              *CH             CH2             CH3             CH2OH          
 CH3O            CH4             CH3OH           CH3OOH          *CN            
 CNN             *CO             COOH            *C2             C2H            
 C2H2,acetylene  C2H2,vinylidene CH2CO,ketene    O(CH)2O         HO(CO)2OH      
 C2H3,vinyl      CH3CN           CH3CO,acetyl    C2H4            C2H4O,ethylen-o
 CH3CHO,ethanal  CH3COOH         OHCH2COOH       C2H5            C2H6           
 CH3N2CH3        C2H5OH          CH3OCH3         CH3O2CH3        CCN            
 CNC             OCCN            C2N2            C2O             *C3            
 C3H3,1-propynl  C3H3,2-propynl  C3H4,allene     C3H4,propyne    C3H4,cyclo-    
 C3H5,allyl      C3H6,propylene  C3H6,cyclo-     C3H6O,propylox  C3H6O,acetone  
 C3H6O,propanal  C3H7,n-propyl   C3H7,i-propyl   C3H8            C3H8O,1propanol
 C3H8O,2propanol CNCOCN          C3O2            *C4             C4H2,butadiyne 
 C4H4,1,3-cyclo- C4H6,butadiene  C4H6,1butyne    C4H6,2butyne    C4H6,cyclo-    
 C4H8,1-butene   C4H8,cis2-buten C4H8,tr2-butene C4H8,isobutene  C4H8,cyclo-    
 (CH3COOH)2      C4H9,n-butyl    C4H9,i-butyl    C4H9,s-butyl    C4H9,t-butyl   
 C4H10,n-butane  C4H10,isobutane C4N2            *C5             C5H6,1,3cyclo- 
 C5H8,cyclo-     C5H10,1-pentene C5H10,cyclo-    C5H11,pentyl    C5H11,t-pentyl 
 C5H12,n-pentane C5H12,i-pentane CH3C(CH3)2CH3   C6H2            C6H5,phenyl    
 C6H5O,phenoxy   C6H6            C6H5OH,phenol   C6H10,cyclo-    C6H12,1-hexene 
 C6H12,cyclo-    C6H13,n-hexyl   C6H14,n-hexane  C7H7,benzyl     C7H8           
 C7H8O,cresol-mx C7H14,1-heptene C7H15,n-heptyl  C7H16,n-heptane C7H16,2-methylh
 C8H8,styrene    C8H10,ethylbenz C8H16,1-octene  C8H17,n-octyl   C8H18,n-octane 
 C8H18,isooctane C9H19,n-nonyl   C10H8,naphthale C10H21,n-decyl  C12H9,o-bipheny
 C12H10,biphenyl *H              HCN             HCO             HCCN           
 HCCO            HNC             HNCO            HNO             HNO2           
 HNO3            HO2             *H2             HCHO,formaldehy HCOOH          
 H2O2            (HCOOH)2        *N              NCO             *NH            
 NH2             NH3             NH2OH           NO2             NO3            
 NCN             N2H2            NH2NO2          N2H4            N2O            
 N2O3            N2O4            N2O5            N3              N3H            
 *O              O3              C(gr)           H2O(cr)         H2O(L)         

 NOTE. WEIGHT FRACTION OF FUEL IN TOTAL FUELS AND OF OXIDANT IN TOTAL OXIDANTS






 POINT ITN      T            H           O           C           N 

   1    1    1405.467     -15.425     -12.485     -38.977     -14.557

 Pinf/Pt = 1.793859
   2    3    1254.498     -16.697     -12.601     -42.850     -14.676

 Pinf/Pt = 1.800472
   2    2    1253.586     -16.706     -12.601     -42.877     -14.677

 Pinf/Pt = 1.800513
   2    1    1253.580     -16.706     -12.601     -42.877     -14.677

   3    4     721.286     -25.445     -13.170     -70.058     -15.281

   3    2     706.468     -25.876     -13.193     -71.416     -15.305

   3    1     706.505     -25.875     -13.193     -71.412     -15.305






              THEORETICAL ROCKET PERFORMANCE ASSUMING EQUILIBRIUM

           COMPOSITION DURING EXPANSION FROM INFINITE AREA COMBUSTOR

 Pin =   638.2 PSIA
 CASE =                

             REACTANT                    WT FRACTION      ENERGY      TEMP
                                          (SEE NOTE)     KJ/KG-MOL      K  
 OXIDANT     H2O2(L)                      0.9900000   -190013.250    273.150
 OXIDANT     H2O(L)                       0.0100000   -287717.011    273.150
 FUEL        ABS                          1.0000000     62630.000    273.150

 O/F=   99.00000  %FUEL=  1.000000  R,EQ.RATIO= 0.535174  PHI,EQ.RATIO= 0.061483

                 CHAMBER   THROAT     EXIT
 Pinf/P            1.0000   1.8005   26.523
 P, BAR            44.000   24.437   1.6589
 T, K             1405.47  1253.58   706.51
 RHO, KG/CU M    8.5534 0 5.3262 0 6.4155-1
 H, KJ/KG        -5622.20 -5908.14 -6853.98
 U, KJ/KG        -6136.62 -6366.96 -7112.57
 G, KJ/KG        -19546.2 -18327.4 -13853.4
 S, KJ/(KG)(K)     9.9071   9.9071   9.9071

 M, (1/n)          22.717   22.717   22.717
 (dLV/dLP)t      -1.00000 -1.00000 -1.00000
 (dLV/dLT)p        1.0001   1.0000   1.0000
 Cp, KJ/(KG)(K)    1.9137   1.8513   1.6008
 GAMMAs            1.2366   1.2464   1.2964
 SON VEL,M/SEC      797.6    756.2    579.0
 MACH NUMBER        0.000    1.000    2.711

 PERFORMANCE PARAMETERS

 Ae/At                      1.0000   4.0000
 CSTAR, M/SEC               1092.4   1092.4
 CF                         0.6923   1.4368
 Ivac, M/SEC                1363.0   1734.3
 Isp, M/SEC                  756.2   1569.6


 MOLE FRACTIONS

 *CO2             0.01530  0.01530  0.01530
 H2O              0.67666  0.67668  0.67668
 *NO              0.00003  0.00001  0.00000
 *N2              0.00084  0.00085  0.00085
 *OH              0.00004  0.00001  0.00000
 *O2              0.30713  0.30715  0.30716

  * THERMODYNAMIC PROPERTIES FITTED TO 20000.K

    PRODUCTS WHICH WERE CONSIDERED BUT WHOSE MOLE FRACTIONS
    WERE LESS THAN 5.000000E-06 FOR ALL ASSIGNED CONDITIONS

 *C              *CH             CH2             CH3             CH2OH          
 CH3O            CH4             CH3OH           CH3OOH          *CN            
 CNN             *CO             COOH            *C2             C2H            
 C2H2,acetylene  C2H2,vinylidene CH2CO,ketene    O(CH)2O         HO(CO)2OH      
 C2H3,vinyl      CH3CN           CH3CO,acetyl    C2H4            C2H4O,ethylen-o
 CH3CHO,ethanal  CH3COOH         OHCH2COOH       C2H5            C2H6           
 CH3N2CH3        C2H5OH          CH3OCH3         CH3O2CH3        CCN            
 CNC             OCCN            C2N2            C2O             *C3            
 C3H3,1-propynl  C3H3,2-propynl  C3H4,allene     C3H4,propyne    C3H4,cyclo-    
 C3H5,allyl      C3H6,propylene  C3H6,cyclo-     C3H6O,propylox  C3H6O,acetone  
 C3H6O,propanal  C3H7,n-propyl   C3H7,i-propyl   C3H8            C3H8O,1propanol
 C3H8O,2propanol CNCOCN          C3O2            *C4             C4H2,butadiyne 
 C4H4,1,3-cyclo- C4H6,butadiene  C4H6,1butyne    C4H6,2butyne    C4H6,cyclo-    
 C4H8,1-butene   C4H8,cis2-buten C4H8,tr2-butene C4H8,isobutene  C4H8,cyclo-    
 (CH3COOH)2      C4H9,n-butyl    C4H9,i-butyl    C4H9,s-butyl    C4H9,t-butyl   
 C4H10,n-butane  C4H10,isobutane C4N2            *C5             C5H6,1,3cyclo- 
 C5H8,cyclo-     C5H10,1-pentene C5H10,cyclo-    C5H11,pentyl    C5H11,t-pentyl 
 C5H12,n-pentane C5H12,i-pentane CH3C(CH3)2CH3   C6H2            C6H5,phenyl    
 C6H5O,phenoxy   C6H6            C6H5OH,phenol   C6H10,cyclo-    C6H12,1-hexene 
 C6H12,cyclo-    C6H13,n-hexyl   C6H14,n-hexane  C7H7,benzyl     C7H8           
 C7H8O,cresol-mx C7H14,1-heptene C7H15,n-heptyl  C7H16,n-heptane C7H16,2-methylh
 C8H8,styrene    C8H10,ethylbenz C8H16,1-octene  C8H17,n-octyl   C8H18,n-octane 
 C8H18,isooctane C9H19,n-nonyl   C10H8,naphthale C10H21,n-decyl  C12H9,o-bipheny
 C12H10,biphenyl *H              HCN             HCO             HCCN           
 HCCO            HNC             HNCO            HNO             HNO2           
 HNO3            HO2             *H2             HCHO,formaldehy HCOOH          
 H2O2            (HCOOH)2        *N              NCO             *NH            
 NH2             NH3             NH2OH           NO2             NO3            
 NCN             N2H2            NH2NO2          N2H4            N2O            
 N2O3            N2O4            N2O5            N3              N3H            
 *O              O3              C(gr)           H2O(cr)         H2O(L)         

 NOTE. WEIGHT FRACTION OF FUEL IN TOTAL FUELS AND OF OXIDANT IN TOTAL OXIDANTS





           THEORETICAL ROCKET PERFORMANCE ASSUMING FROZEN COMPOSITION

 Pin =   638.2 PSIA
 CASE =                

             REACTANT                    WT FRACTION      ENERGY      TEMP
                                          (SEE NOTE)     KJ/KG-MOL      K  
 OXIDANT     H2O2(L)                      0.9900000   -190013.250    273.150
 OXIDANT     H2O(L)                       0.0100000   -287717.011    273.150
 FUEL        ABS                          1.0000000     62630.000    273.150

 O/F=   99.00000  %FUEL=  1.000000  R,EQ.RATIO= 0.535174  PHI,EQ.RATIO= 0.061483

                 CHAMBER   THROAT     EXIT
 Pinf/P            1.0000   1.8006   26.525
 P, BAR            44.000   24.436   1.6588
 T, K             1405.47  1253.40   706.34
 RHO, KG/CU M    8.5534 0 5.3266 0 6.4165-1
 H, KJ/KG        -5622.20 -5908.15 -6853.81
 U, KJ/KG        -6136.62 -6366.91 -7112.34
 G, KJ/KG        -19546.2 -18325.7 -13851.6
 S, KJ/(KG)(K)     9.9071   9.9071   9.9071

 M, (1/n)          22.717   22.717   22.717
 Cp, KJ/(KG)(K)    1.9099   1.8501   1.6007
 GAMMAs            1.2371   1.2466   1.2964
 SON VEL,M/SEC      797.7    756.2    578.9
 MACH NUMBER        0.000    1.000    2.711

 PERFORMANCE PARAMETERS

 Ae/At                      1.0000   4.0000
 CSTAR, M/SEC               1092.3   1092.3
 CF                         0.6923   1.4368
 Ivac, M/SEC                1362.9   1734.2
 Isp, M/SEC                  756.2   1569.5

 MOLE FRACTIONS

 *CO2            0.01530   H2O             0.67666   *NO             0.00003
 *N2             0.00084   *OH             0.00004   *O2             0.30713

  * THERMODYNAMIC PROPERTIES FITTED TO 20000.K

    PRODUCTS WHICH WERE CONSIDERED BUT WHOSE MOLE FRACTIONS
    WERE LESS THAN 5.000000E-06 FOR ALL ASSIGNED CONDITIONS

 *C              *CH             CH2             CH3             CH2OH          
 CH3O            CH4             CH3OH           CH3OOH          *CN            
 CNN             *CO             COOH            *C2             C2H            
 C2H2,acetylene  C2H2,vinylidene CH2CO,ketene    O(CH)2O         HO(CO)2OH      
 C2H3,vinyl      CH3CN           CH3CO,acetyl    C2H4            C2H4O,ethylen-o
 CH3CHO,ethanal  CH3COOH         OHCH2COOH       C2H5            C2H6           
 CH3N2CH3        C2H5OH          CH3OCH3         CH3O2CH3        CCN            
 CNC             OCCN            C2N2            C2O             *C3            
 C3H3,1-propynl  C3H3,2-propynl  C3H4,allene     C3H4,propyne    C3H4,cyclo-    
 C3H5,allyl      C3H6,propylene  C3H6,cyclo-     C3H6O,propylox  C3H6O,acetone  
 C3H6O,propanal  C3H7,n-propyl   C3H7,i-propyl   C3H8            C3H8O,1propanol
 C3H8O,2propanol CNCOCN          C3O2            *C4             C4H2,butadiyne 
 C4H4,1,3-cyclo- C4H6,butadiene  C4H6,1butyne    C4H6,2butyne    C4H6,cyclo-    
 C4H8,1-butene   C4H8,cis2-buten C4H8,tr2-butene C4H8,isobutene  C4H8,cyclo-    
 (CH3COOH)2      C4H9,n-butyl    C4H9,i-butyl    C4H9,s-butyl    C4H9,t-butyl   
 C4H10,n-butane  C4H10,isobutane C4N2            *C5             C5H6,1,3cyclo- 
 C5H8,cyclo-     C5H10,1-pentene C5H10,cyclo-    C5H11,pentyl    C5H11,t-pentyl 
 C5H12,n-pentane C5H12,i-pentane CH3C(CH3)2CH3   C6H2            C6H5,phenyl    
 C6H5O,phenoxy   C6H6            C6H5OH,phenol   C6H10,cyclo-    C6H12,1-hexene 
 C6H12,cyclo-    C6H13,n-hexyl   C6H14,n-hexane  C7H7,benzyl     C7H8           
 C7H8O,cresol-mx C7H14,1-heptene C7H15,n-heptyl  C7H16,n-heptane C7H16,2-methylh
 C8H8,styrene    C8H10,ethylbenz C8H16,1-octene  C8H17,n-octyl   C8H18,n-octane 
 C8H18,isooctane C9H19,n-nonyl   C10H8,naphthale C10H21,n-decyl  C12H9,o-bipheny
 C12H10,biphenyl *H              HCN             HCO             HCCN           
 HCCO            HNC             HNCO            HNO             HNO2           
 HNO3            HO2             *H2             HCHO,formaldehy HCOOH          
 H2O2            (HCOOH)2        *N              NCO             *NH            
 NH2             NH3             NH2OH           NO2             NO3            
 NCN             N2H2            NH2NO2          N2H4            N2O            
 N2O3            N2O4            N2O5            N3              N3H            
 *O              O3              C(gr)           H2O(cr)         H2O(L)         

 NOTE. WEIGHT FRACTION OF FUEL IN TOTAL FUELS AND OF OXIDANT IN TOTAL OXIDANTS



