
 *******************************************************************************

         NASA-GLENN CHEMICAL EQUILIBRIUM PROGRAM CEA2, MAY 21, 2004
                   BY  BONNIE MCBRIDE AND SANFORD GORDON
      REFS: NASA RP-1311, PART I, 1994 AND NASA RP-1311, PART II, 1996

 *******************************************************************************



 problem    o/f=1,1.5,2,2.5,3,4,4.5,5,5.5,6,7,8,9,10,20,30,50,70,90,99,
     rocket  equilibrium  frozen  nfz=1  tcest,k=3800
   p,bar=24.21,24.22,24.23,24.24,24.25,24.26,24.27,24.28
   sup,ae/at=4,
 react
   oxid=H2O2(L) wt=99  t,k=273.15
   oxid=H2O(L) wt=1   t,k=273.15
   fuel=ABS  wt=100  t,k=273.15
     h,kj/mol=62.63  C 3.85 H 4.85 N 0.43
 output
     plot o/f %f p t rho h g m mw cp gam pip mach aeat cf ivac isp
 end

 OPTIONS: TP=F  HP=F  SP=F  TV=F  UV=F  SV=F  DETN=F  SHOCK=F  REFL=F  INCD=F
 RKT=T  FROZ=T  EQL=T  IONS=F  SIUNIT=T  DEBUGF=F  SHKDBG=F  DETDBG=F  TRNSPT=F

 TRACE= 0.00E+00  S/R= 0.000000E+00  H/R= 0.000000E+00  U/R= 0.000000E+00

 Pc,BAR =    24.210000    24.220000    24.230000    24.240000    24.250000    24.260000    24.270000

 Pc,BAR =    24.280000

 Pc/P =

 SUBSONIC AREA RATIOS =

 SUPERSONIC AREA RATIOS =     4.0000

 NFZ=  1  Mdot/Ac= 0.000000E+00  Ac/At= 0.000000E+00

    REACTANT          WT.FRAC   (ENERGY/R),K   TEMP,K  DENSITY
        EXPLODED FORMULA
 O: H2O2(L)          0.990000  -0.228532E+05   273.15  0.0000
          H  2.00000  O  2.00000
 O: H2O(L)           0.010000  -0.346042E+05   273.15  0.0000
          H  2.00000  O  1.00000
 F: ABS              1.000000   0.753261E+04   273.15  0.0000
          C  3.85000  H  4.85000  N  0.43000

  SPECIES BEING CONSIDERED IN THIS SYSTEM
 (CONDENSED PHASE MAY HAVE NAME LISTED SEVERAL TIMES)
  LAST thermo.inp UPDATE:    9/09/04

  g 7/97  *C               tpis79  *CH              g 4/02  CH2            
  g 4/02  CH3              g11/00  CH2OH            g 7/00  CH3O           
  g 8/99  CH4              g 7/00  CH3OH            srd 01  CH3OOH         
  g 8/99  *CN              g12/99  CNN              tpis79  *CO            
  g 9/99  *CO2             tpis91  COOH             tpis91  *C2            
  g 6/01  C2H              g 1/91  C2H2,acetylene   g 5/01  C2H2,vinylidene
  g 4/02  CH2CO,ketene     g 3/02  O(CH)2O          srd 01  HO(CO)2OH      
  g 7/01  C2H3,vinyl       g 9/00  CH3CN            g 6/96  CH3CO,acetyl   
  g 1/00  C2H4             g 8/88  C2H4O,ethylen-o  g 8/88  CH3CHO,ethanal 
  g 6/00  CH3COOH          srd 01  OHCH2COOH        g 7/00  C2H5           
  g 7/00  C2H6             g 8/88  CH3N2CH3         g 8/88  C2H5OH         
  g 7/00  CH3OCH3          srd 01  CH3O2CH3         g 7/00  CCN            
  tpis91  CNC              srd 01  OCCN             tpis79  C2N2           
  g 8/00  C2O              tpis79  *C3              n 4/98  C3H3,1-propynl 
  n 4/98  C3H3,2-propynl   g 2/00  C3H4,allene      g 1/00  C3H4,propyne   
  g 5/90  C3H4,cyclo-      g 3/01  C3H5,allyl       g 2/00  C3H6,propylene 
  g 1/00  C3H6,cyclo-      g 6/01  C3H6O,propylox   g 6/97  C3H6O,acetone  
  g 1/02  C3H6O,propanal   g 7/01  C3H7,n-propyl    g 9/85  C3H7,i-propyl  
  g 2/00  C3H8             g 2/00  C3H8O,1propanol  g 2/00  C3H8O,2propanol
  srd 01  CNCOCN           g 7/88  C3O2             g tpis  *C4            
  g 7/01  C4H2,butadiyne   g 8/00  C4H4,1,3-cyclo-  n10/92  C4H6,butadiene 
  n10/93  C4H6,1butyne     n10/93  C4H6,2butyne     g 8/00  C4H6,cyclo-    
  n 4/88  C4H8,1-butene    n 4/88  C4H8,cis2-buten  n 4/88  C4H8,tr2-butene
  n 4/88  C4H8,isobutene   g 8/00  C4H8,cyclo-      g10/00  (CH3COOH)2     
  n10/84  C4H9,n-butyl     n10/84  C4H9,i-butyl     g 1/93  C4H9,s-butyl   
  g 1/93  C4H9,t-butyl     g12/00  C4H10,n-butane   g 8/00  C4H10,isobutane
  g 6/01  C4N2             g 8/00  *C5              g 5/90  C5H6,1,3cyclo- 
  g 1/93  C5H8,cyclo-      n 4/87  C5H10,1-pentene  g 2/01  C5H10,cyclo-   
  n10/84  C5H11,pentyl     g 1/93  C5H11,t-pentyl   n10/85  C5H12,n-pentane
  n10/85  C5H12,i-pentane  n10/85  CH3C(CH3)2CH3    g 2/93  C6H2           
  g11/00  C6H5,phenyl      g 8/00  C6H5O,phenoxy    g 8/00  C6H6           
  g 8/00  C6H5OH,phenol    g 1/93  C6H10,cyclo-     n 4/87  C6H12,1-hexene 
  g 6/90  C6H12,cyclo-     n10/83  C6H13,n-hexyl    g 6/01  C6H14,n-hexane 
  g 7/01  C7H7,benzyl      g 1/93  C7H8             g12/00  C7H8O,cresol-mx
  n 4/87  C7H14,1-heptene  n10/83  C7H15,n-heptyl   n10/85  C7H16,n-heptane
  n10/85  C7H16,2-methylh  n 4/89  C8H8,styrene     n10/86  C8H10,ethylbenz
  n 4/87  C8H16,1-octene   n10/83  C8H17,n-octyl    n 4/85  C8H18,n-octane 
  n 4/85  C8H18,isooctane  n10/83  C9H19,n-nonyl    g 3/01  C10H8,naphthale
  n10/83  C10H21,n-decyl   g 8/00  C12H9,o-bipheny  g 8/00  C12H10,biphenyl
  g 6/97  *H               g 6/01  HCN              g 1/01  HCO            
  tpis89  HCCN             g 6/01  HCCO             g 6/01  HNC            
  g 7/00  HNCO             g10/01  HNO              tpis89  HNO2           
  g 5/99  HNO3             g 4/02  HO2              tpis78  *H2            
  g 5/01  HCHO,formaldehy  g 6/01  HCOOH            g 8/89  H2O            
  g 6/99  H2O2             g 6/01  (HCOOH)2         g 5/97  *N             
  g 6/01  NCO              g 4/99  *NH              g 3/01  NH2            
  tpis89  NH3              tpis89  NH2OH            tpis89  *NO            
  g 4/99  NO2              j12/64  NO3              tpis78  *N2            
  g 6/01  NCN              g 5/99  N2H2             tpis89  NH2NO2         
  g 4/99  N2H4             g 4/99  N2O              g 4/99  N2O3           
  tpis89  N2O4             g 4/99  N2O5             tpis89  N3             
  g 4/99  N3H              g 5/97  *O               g 4/02  *OH            
  tpis89  *O2              g 8/01  O3               n 4/83  C(gr)          
  n 4/83  C(gr)            n 4/83  C(gr)            g11/99  H2O(cr)        
  g 8/01  H2O(L)           g 8/01  H2O(L)         

 O/F =   1.000000

                       EFFECTIVE FUEL     EFFECTIVE OXIDANT        MIXTURE
 ENTHALPY                  h(2)/R              h(1)/R               h0/R
 (KG-MOL)(K)/KG        0.13179832E+03     -0.68435279E+03     -0.27627724E+03

 KG-FORM.WT./KG             bi(2)               bi(1)               b0i
  *H                   0.84860554E-01      0.59320330E-01      0.72090442E-01
  *O                   0.00000000E+00      0.58765245E-01      0.29382623E-01
  *C                   0.67363532E-01      0.00000000E+00      0.33681766E-01
  *N                   0.75237192E-02      0.00000000E+00      0.37618596E-02

 POINT ITN      T            H           O           C           N 

   1   21    1225.768      -7.937     -33.885      -0.749     -12.826

 ADD  C(gr)          
   1    4    1250.392      -7.853     -32.775      -1.868     -12.864

 Pinf/Pt = 1.749566
   2    4    1179.433      -8.051     -33.968      -1.772     -13.052

 Pinf/Pt = 1.740928
   2    2    1180.016      -8.050     -33.957      -1.773     -13.050

 Pinf/Pt = 1.740993
   2    1    1180.011      -8.050     -33.957      -1.773     -13.050

   3    5     948.347      -9.013     -39.405      -1.449     -13.989

   3    3     955.294      -8.975     -39.197      -1.459     -13.952

   3    2     955.320      -8.975     -39.196      -1.459     -13.952






              THEORETICAL ROCKET PERFORMANCE ASSUMING EQUILIBRIUM

           COMPOSITION DURING EXPANSION FROM INFINITE AREA COMBUSTOR

 Pin =   351.1 PSIA
 CASE =                

             REACTANT                    WT FRACTION      ENERGY      TEMP
                                          (SEE NOTE)     KJ/KG-MOL      K  
 OXIDANT     H2O2(L)                      0.9900000   -190013.250    273.150
 OXIDANT     H2O(L)                       0.0100000   -287717.011    273.150
 FUEL        ABS                          1.0000000     62630.000    273.150

 O/F=    1.00000  %FUEL= 50.000000  R,EQ.RATIO= 3.519385  PHI,EQ.RATIO= 6.086818

                 CHAMBER   THROAT     EXIT
 Pinf/P            1.0000   1.7410   20.019
 P, BAR            24.210   13.906   1.2094
 T, K             1250.39  1180.01   955.32
 RHO, KG/CU M    3.9680 0 2.4577 0 2.8425-1
 H, KJ/KG        -2297.11 -2622.82 -3818.91
 U, KJ/KG        -2907.25 -3188.64 -4244.37
 G, KJ/KG        -17055.2 -16550.2 -15094.3
 S, KJ/(KG)(K)    11.8028  11.8028  11.8028

 M, (1/n)          17.039   17.340   18.669
 MW, MOL WT        15.305   15.243   14.921
 (dLV/dLP)t      -1.09360 -1.10006 -1.10396
 (dLV/dLT)p        2.1422   2.3169   2.7212
 Cp, KJ/(KG)(K)    9.5495  11.1202  15.7357
 GAMMAs            1.1640   1.1513   1.1181
 SON VEL,M/SEC      842.7    807.1    689.7
 MACH NUMBER        0.000    1.000    2.529

 PERFORMANCE PARAMETERS

 Ae/At                      1.0000   4.0000
 CSTAR, M/SEC               1220.5   1220.5
 CF                         0.6613   1.4294
 Ivac, M/SEC                1508.2   1988.5
 Isp, M/SEC                  807.1   1744.6


 MOLE FRACTIONS

 CH4              0.04787  0.04568  0.03420
 *CO              0.33656  0.30882  0.18814
 *CO2             0.02925  0.03798  0.07944
 C2H4             0.00001  0.00000  0.00000
 C2H6             0.00001  0.00000  0.00000
 HCN              0.00002  0.00001  0.00000
 *H2              0.40100  0.39475  0.37795
 H2O              0.05463  0.06310  0.09140
 NH3              0.00018  0.00014  0.00005
 *N2              0.02869  0.02860  0.02804
 C(gr)            0.10178  0.12091  0.20078

  * THERMODYNAMIC PROPERTIES FITTED TO 20000.K

    PRODUCTS WHICH WERE CONSIDERED BUT WHOSE MOLE FRACTIONS
    WERE LESS THAN 5.000000E-06 FOR ALL ASSIGNED CONDITIONS

 *C              *CH             CH2             CH3             CH2OH          
 CH3O            CH3OH           CH3OOH          *CN             CNN            
 COOH            *C2             C2H             C2H2,acetylene  C2H2,vinylidene
 CH2CO,ketene    O(CH)2O         HO(CO)2OH       C2H3,vinyl      CH3CN          
 CH3CO,acetyl    C2H4O,ethylen-o CH3CHO,ethanal  CH3COOH         OHCH2COOH      
 C2H5            CH3N2CH3        C2H5OH          CH3OCH3         CH3O2CH3       
 CCN             CNC             OCCN            C2N2            C2O            
 *C3             C3H3,1-propynl  C3H3,2-propynl  C3H4,allene     C3H4,propyne   
 C3H4,cyclo-     C3H5,allyl      C3H6,propylene  C3H6,cyclo-     C3H6O,propylox 
 C3H6O,acetone   C3H6O,propanal  C3H7,n-propyl   C3H7,i-propyl   C3H8           
 C3H8O,1propanol C3H8O,2propanol CNCOCN          C3O2            *C4            
 C4H2,butadiyne  C4H4,1,3-cyclo- C4H6,butadiene  C4H6,1butyne    C4H6,2butyne   
 C4H6,cyclo-     C4H8,1-butene   C4H8,cis2-buten C4H8,tr2-butene C4H8,isobutene 
 C4H8,cyclo-     (CH3COOH)2      C4H9,n-butyl    C4H9,i-butyl    C4H9,s-butyl   
 C4H9,t-butyl    C4H10,n-butane  C4H10,isobutane C4N2            *C5            
 C5H6,1,3cyclo-  C5H8,cyclo-     C5H10,1-pentene C5H10,cyclo-    C5H11,pentyl   
 C5H11,t-pentyl  C5H12,n-pentane C5H12,i-pentane CH3C(CH3)2CH3   C6H2           
 C6H5,phenyl     C6H5O,phenoxy   C6H6            C6H5OH,phenol   C6H10,cyclo-   
 C6H12,1-hexene  C6H12,cyclo-    C6H13,n-hexyl   C6H14,n-hexane  C7H7,benzyl    
 C7H8            C7H8O,cresol-mx C7H14,1-heptene C7H15,n-heptyl  C7H16,n-heptane
 C7H16,2-methylh C8H8,styrene    C8H10,ethylbenz C8H16,1-octene  C8H17,n-octyl  
 C8H18,n-octane  C8H18,isooctane C9H19,n-nonyl   C10H8,naphthale C10H21,n-decyl 
 C12H9,o-bipheny C12H10,biphenyl *H              HCO             HCCN           
 HCCO            HNC             HNCO            HNO             HNO2           
 HNO3            HO2             HCHO,formaldehy HCOOH           H2O2           
 (HCOOH)2        *N              NCO             *NH             NH2            
 NH2OH           *NO             NO2             NO3             NCN            
 N2H2            NH2NO2          N2H4            N2O             N2O3           
 N2O4            N2O5            N3              N3H             *O             
 *OH             *O2             O3              H2O(cr)         H2O(L)         

 NOTE. WEIGHT FRACTION OF FUEL IN TOTAL FUELS AND OF OXIDANT IN TOTAL OXIDANTS





           THEORETICAL ROCKET PERFORMANCE ASSUMING FROZEN COMPOSITION

 Pin =   351.1 PSIA
 CASE =                

             REACTANT                    WT FRACTION      ENERGY      TEMP
                                          (SEE NOTE)     KJ/KG-MOL      K  
 OXIDANT     H2O2(L)                      0.9900000   -190013.250    273.150
 OXIDANT     H2O(L)                       0.0100000   -287717.011    273.150
 FUEL        ABS                          1.0000000     62630.000    273.150

 O/F=    1.00000  %FUEL= 50.000000  R,EQ.RATIO= 3.519385  PHI,EQ.RATIO= 6.086818

                 CHAMBER   THROAT     EXIT
 Pinf/P            1.0000   1.8186   28.060
 P, BAR            24.210   13.313  0.86279
 T, K             1250.39  1100.59   584.70
 RHO, KG/CU M    3.9680 0 2.4789 0 3.0241-1
 H, KJ/KG        -2297.11 -2639.79 -3736.22
 U, KJ/KG        -2907.25 -3176.82 -4021.53
 G, KJ/KG        -17055.2 -15629.8 -10637.3
 S, KJ/(KG)(K)    11.8028  11.8028  11.8028

 M, (1/n)          17.039   17.039   17.039
 MW, MOL WT        15.305   15.305   15.305
 Cp, KJ/(KG)(K)    2.3189   2.2549   1.9823
 GAMMAs            1.2665   1.2762   1.3265
 SON VEL,M/SEC      879.1    827.9    615.2
 MACH NUMBER        0.000    1.000    2.758

 PERFORMANCE PARAMETERS

 Ae/At                      1.0000   4.0000
 CSTAR, M/SEC               1179.7   1179.7
 CF                         0.7017   1.4381
 Ivac, M/SEC                1476.6   1864.7
 Isp, M/SEC                  827.9   1696.5

 MOLE FRACTIONS

 CH4             0.04787   *CO             0.33656   *CO2            0.02925
 C2H4            0.00001   C2H6            0.00001   HCN             0.00002
 *H2             0.40100   H2O             0.05463   NH3             0.00018
 *N2             0.02869   C(gr)           0.10178

  * THERMODYNAMIC PROPERTIES FITTED TO 20000.K

    PRODUCTS WHICH WERE CONSIDERED BUT WHOSE MOLE FRACTIONS
    WERE LESS THAN 5.000000E-06 FOR ALL ASSIGNED CONDITIONS

 *C              *CH             CH2             CH3             CH2OH          
 CH3O            CH3OH           CH3OOH          *CN             CNN            
 COOH            *C2             C2H             C2H2,acetylene  C2H2,vinylidene
 CH2CO,ketene    O(CH)2O         HO(CO)2OH       C2H3,vinyl      CH3CN          
 CH3CO,acetyl    C2H4O,ethylen-o CH3CHO,ethanal  CH3COOH         OHCH2COOH      
 C2H5            CH3N2CH3        C2H5OH          CH3OCH3         CH3O2CH3       
 CCN             CNC             OCCN            C2N2            C2O            
 *C3             C3H3,1-propynl  C3H3,2-propynl  C3H4,allene     C3H4,propyne   
 C3H4,cyclo-     C3H5,allyl      C3H6,propylene  C3H6,cyclo-     C3H6O,propylox 
 C3H6O,acetone   C3H6O,propanal  C3H7,n-propyl   C3H7,i-propyl   C3H8           
 C3H8O,1propanol C3H8O,2propanol CNCOCN          C3O2            *C4            
 C4H2,butadiyne  C4H4,1,3-cyclo- C4H6,butadiene  C4H6,1butyne    C4H6,2butyne   
 C4H6,cyclo-     C4H8,1-butene   C4H8,cis2-buten C4H8,tr2-butene C4H8,isobutene 
 C4H8,cyclo-     (CH3COOH)2      C4H9,n-butyl    C4H9,i-butyl    C4H9,s-butyl   
 C4H9,t-butyl    C4H10,n-butane  C4H10,isobutane C4N2            *C5            
 C5H6,1,3cyclo-  C5H8,cyclo-     C5H10,1-pentene C5H10,cyclo-    C5H11,pentyl   
 C5H11,t-pentyl  C5H12,n-pentane C5H12,i-pentane CH3C(CH3)2CH3   C6H2           
 C6H5,phenyl     C6H5O,phenoxy   C6H6            C6H5OH,phenol   C6H10,cyclo-   
 C6H12,1-hexene  C6H12,cyclo-    C6H13,n-hexyl   C6H14,n-hexane  C7H7,benzyl    
 C7H8            C7H8O,cresol-mx C7H14,1-heptene C7H15,n-heptyl  C7H16,n-heptane
 C7H16,2-methylh C8H8,styrene    C8H10,ethylbenz C8H16,1-octene  C8H17,n-octyl  
 C8H18,n-octane  C8H18,isooctane C9H19,n-nonyl   C10H8,naphthale C10H21,n-decyl 
 C12H9,o-bipheny C12H10,biphenyl *H              HCO             HCCN           
 HCCO            HNC             HNCO            HNO             HNO2           
 HNO3            HO2             HCHO,formaldehy HCOOH           H2O2           
 (HCOOH)2        *N              NCO             *NH             NH2            
 NH2OH           *NO             NO2             NO3             NCN            
 N2H2            NH2NO2          N2H4            N2O             N2O3           
 N2O4            N2O5            N3              N3H             *O             
 *OH             *O2             O3              H2O(cr)         H2O(L)         

 NOTE. WEIGHT FRACTION OF FUEL IN TOTAL FUELS AND OF OXIDANT IN TOTAL OXIDANTS






 POINT ITN      T            H           O           C           N 

   1    2    1250.423      -7.853     -32.775      -1.868     -12.864

 Pinf/Pt = 1.749567
   2    4    1179.460      -8.051     -33.967      -1.772     -13.051

 Pinf/Pt = 1.740930
   2    2    1180.043      -8.049     -33.957      -1.773     -13.050

 Pinf/Pt = 1.740994
   2    1    1180.039      -8.049     -33.957      -1.773     -13.050

   3    5     948.365      -9.013     -39.404      -1.449     -13.989

   3    3     955.312      -8.975     -39.196      -1.459     -13.952

   3    2     955.338      -8.975     -39.196      -1.459     -13.952






              THEORETICAL ROCKET PERFORMANCE ASSUMING EQUILIBRIUM

           COMPOSITION DURING EXPANSION FROM INFINITE AREA COMBUSTOR

 Pin =   351.3 PSIA
 CASE =                

             REACTANT                    WT FRACTION      ENERGY      TEMP
                                          (SEE NOTE)     KJ/KG-MOL      K  
 OXIDANT     H2O2(L)                      0.9900000   -190013.250    273.150
 OXIDANT     H2O(L)                       0.0100000   -287717.011    273.150
 FUEL        ABS                          1.0000000     62630.000    273.150

 O/F=    1.00000  %FUEL= 50.000000  R,EQ.RATIO= 3.519385  PHI,EQ.RATIO= 6.086818

                 CHAMBER   THROAT     EXIT
 Pinf/P            1.0000   1.7410   20.019
 P, BAR            24.220   13.912   1.2099
 T, K             1250.42  1180.04   955.34
 RHO, KG/CU M    3.9695 0 2.4586 0 2.8436-1
 H, KJ/KG        -2297.11 -2622.82 -3818.93
 U, KJ/KG        -2907.25 -3188.65 -4244.39
 G, KJ/KG        -17055.3 -16550.3 -15094.4
 S, KJ/(KG)(K)    11.8026  11.8026  11.8026

 M, (1/n)          17.040   17.340   18.670
 MW, MOL WT        15.305   15.243   14.921
 (dLV/dLP)t      -1.09360 -1.10006 -1.10396
 (dLV/dLT)p        2.1422   2.3169   2.7212
 Cp, KJ/(KG)(K)    9.5493  11.1199  15.7352
 GAMMAs            1.1640   1.1513   1.1181
 SON VEL,M/SEC      842.7    807.1    689.7
 MACH NUMBER        0.000    1.000    2.529

 PERFORMANCE PARAMETERS

 Ae/At                      1.0000   4.0000
 CSTAR, M/SEC               1220.5   1220.5
 CF                         0.6613   1.4294
 Ivac, M/SEC                1508.2   1988.5
 Isp, M/SEC                  807.1   1744.6


 MOLE FRACTIONS

 CH4              0.04787  0.04569  0.03421
 *CO              0.33656  0.30882  0.18814
 *CO2             0.02925  0.03799  0.07944
 C2H4             0.00001  0.00000  0.00000
 C2H6             0.00001  0.00000  0.00000
 HCN              0.00002  0.00001  0.00000
 *H2              0.40099  0.39474  0.37794
 H2O              0.05464  0.06310  0.09141
 NH3              0.00018  0.00014  0.00005
 *N2              0.02869  0.02860  0.02804
 C(gr)            0.10178  0.12091  0.20078

  * THERMODYNAMIC PROPERTIES FITTED TO 20000.K

    PRODUCTS WHICH WERE CONSIDERED BUT WHOSE MOLE FRACTIONS
    WERE LESS THAN 5.000000E-06 FOR ALL ASSIGNED CONDITIONS

 *C              *CH             CH2             CH3             CH2OH          
 CH3O            CH3OH           CH3OOH          *CN             CNN            
 COOH            *C2             C2H             C2H2,acetylene  C2H2,vinylidene
 CH2CO,ketene    O(CH)2O         HO(CO)2OH       C2H3,vinyl      CH3CN          
 CH3CO,acetyl    C2H4O,ethylen-o CH3CHO,ethanal  CH3COOH         OHCH2COOH      
 C2H5            CH3N2CH3        C2H5OH          CH3OCH3         CH3O2CH3       
 CCN             CNC             OCCN            C2N2            C2O            
 *C3             C3H3,1-propynl  C3H3,2-propynl  C3H4,allene     C3H4,propyne   
 C3H4,cyclo-     C3H5,allyl      C3H6,propylene  C3H6,cyclo-     C3H6O,propylox 
 C3H6O,acetone   C3H6O,propanal  C3H7,n-propyl   C3H7,i-propyl   C3H8           
 C3H8O,1propanol C3H8O,2propanol CNCOCN          C3O2            *C4            
 C4H2,butadiyne  C4H4,1,3-cyclo- C4H6,butadiene  C4H6,1butyne    C4H6,2butyne   
 C4H6,cyclo-     C4H8,1-butene   C4H8,cis2-buten C4H8,tr2-butene C4H8,isobutene 
 C4H8,cyclo-     (CH3COOH)2      C4H9,n-butyl    C4H9,i-butyl    C4H9,s-butyl   
 C4H9,t-butyl    C4H10,n-butane  C4H10,isobutane C4N2            *C5            
 C5H6,1,3cyclo-  C5H8,cyclo-     C5H10,1-pentene C5H10,cyclo-    C5H11,pentyl   
 C5H11,t-pentyl  C5H12,n-pentane C5H12,i-pentane CH3C(CH3)2CH3   C6H2           
 C6H5,phenyl     C6H5O,phenoxy   C6H6            C6H5OH,phenol   C6H10,cyclo-   
 C6H12,1-hexene  C6H12,cyclo-    C6H13,n-hexyl   C6H14,n-hexane  C7H7,benzyl    
 C7H8            C7H8O,cresol-mx C7H14,1-heptene C7H15,n-heptyl  C7H16,n-heptane
 C7H16,2-methylh C8H8,styrene    C8H10,ethylbenz C8H16,1-octene  C8H17,n-octyl  
 C8H18,n-octane  C8H18,isooctane C9H19,n-nonyl   C10H8,naphthale C10H21,n-decyl 
 C12H9,o-bipheny C12H10,biphenyl *H              HCO             HCCN           
 HCCO            HNC             HNCO            HNO             HNO2           
 HNO3            HO2             HCHO,formaldehy HCOOH           H2O2           
 (HCOOH)2        *N              NCO             *NH             NH2            
 NH2OH           *NO             NO2             NO3             NCN            
 N2H2            NH2NO2          N2H4            N2O             N2O3           
 N2O4            N2O5            N3              N3H             *O             
 *OH             *O2             O3              H2O(cr)         H2O(L)         

 NOTE. WEIGHT FRACTION OF FUEL IN TOTAL FUELS AND OF OXIDANT IN TOTAL OXIDANTS





           THEORETICAL ROCKET PERFORMANCE ASSUMING FROZEN COMPOSITION

 Pin =   351.3 PSIA
 CASE =                

             REACTANT                    WT FRACTION      ENERGY      TEMP
                                          (SEE NOTE)     KJ/KG-MOL      K  
 OXIDANT     H2O2(L)                      0.9900000   -190013.250    273.150
 OXIDANT     H2O(L)                       0.0100000   -287717.011    273.150
 FUEL        ABS                          1.0000000     62630.000    273.150

 O/F=    1.00000  %FUEL= 50.000000  R,EQ.RATIO= 3.519385  PHI,EQ.RATIO= 6.086818

                 CHAMBER   THROAT     EXIT
 Pinf/P            1.0000   1.8186   28.060
 P, BAR            24.220   13.318  0.86315
 T, K             1250.42  1100.61   584.72
 RHO, KG/CU M    3.9695 0 2.4799 0 3.0253-1
 H, KJ/KG        -2297.11 -2639.79 -3736.25
 U, KJ/KG        -2907.25 -3176.83 -4021.56
 G, KJ/KG        -17055.3 -15629.9 -10637.4
 S, KJ/(KG)(K)    11.8026  11.8026  11.8026

 M, (1/n)          17.040   17.040   17.040
 MW, MOL WT        15.305   15.305   15.305
 Cp, KJ/(KG)(K)    2.3189   2.2549   1.9823
 GAMMAs            1.2665   1.2762   1.3265
 SON VEL,M/SEC      879.1    827.9    615.2
 MACH NUMBER        0.000    1.000    2.758

 PERFORMANCE PARAMETERS

 Ae/At                      1.0000   4.0000
 CSTAR, M/SEC               1179.7   1179.7
 CF                         0.7017   1.4381
 Ivac, M/SEC                1476.6   1864.7
 Isp, M/SEC                  827.9   1696.5

 MOLE FRACTIONS

 CH4             0.04787   *CO             0.33656   *CO2            0.02925
 C2H4            0.00001   C2H6            0.00001   HCN             0.00002
 *H2             0.40099   H2O             0.05464   NH3             0.00018
 *N2             0.02869   C(gr)           0.10178

  * THERMODYNAMIC PROPERTIES FITTED TO 20000.K

    PRODUCTS WHICH WERE CONSIDERED BUT WHOSE MOLE FRACTIONS
    WERE LESS THAN 5.000000E-06 FOR ALL ASSIGNED CONDITIONS

 *C              *CH             CH2             CH3             CH2OH          
 CH3O            CH3OH           CH3OOH          *CN             CNN            
 COOH            *C2             C2H             C2H2,acetylene  C2H2,vinylidene
 CH2CO,ketene    O(CH)2O         HO(CO)2OH       C2H3,vinyl      CH3CN          
 CH3CO,acetyl    C2H4O,ethylen-o CH3CHO,ethanal  CH3COOH         OHCH2COOH      
 C2H5            CH3N2CH3        C2H5OH          CH3OCH3         CH3O2CH3       
 CCN             CNC             OCCN            C2N2            C2O            
 *C3             C3H3,1-propynl  C3H3,2-propynl  C3H4,allene     C3H4,propyne   
 C3H4,cyclo-     C3H5,allyl      C3H6,propylene  C3H6,cyclo-     C3H6O,propylox 
 C3H6O,acetone   C3H6O,propanal  C3H7,n-propyl   C3H7,i-propyl   C3H8           
 C3H8O,1propanol C3H8O,2propanol CNCOCN          C3O2            *C4            
 C4H2,butadiyne  C4H4,1,3-cyclo- C4H6,butadiene  C4H6,1butyne    C4H6,2butyne   
 C4H6,cyclo-     C4H8,1-butene   C4H8,cis2-buten C4H8,tr2-butene C4H8,isobutene 
 C4H8,cyclo-     (CH3COOH)2      C4H9,n-butyl    C4H9,i-butyl    C4H9,s-butyl   
 C4H9,t-butyl    C4H10,n-butane  C4H10,isobutane C4N2            *C5            
 C5H6,1,3cyclo-  C5H8,cyclo-     C5H10,1-pentene C5H10,cyclo-    C5H11,pentyl   
 C5H11,t-pentyl  C5H12,n-pentane C5H12,i-pentane CH3C(CH3)2CH3   C6H2           
 C6H5,phenyl     C6H5O,phenoxy   C6H6            C6H5OH,phenol   C6H10,cyclo-   
 C6H12,1-hexene  C6H12,cyclo-    C6H13,n-hexyl   C6H14,n-hexane  C7H7,benzyl    
 C7H8            C7H8O,cresol-mx C7H14,1-heptene C7H15,n-heptyl  C7H16,n-heptane
 C7H16,2-methylh C8H8,styrene    C8H10,ethylbenz C8H16,1-octene  C8H17,n-octyl  
 C8H18,n-octane  C8H18,isooctane C9H19,n-nonyl   C10H8,naphthale C10H21,n-decyl 
 C12H9,o-bipheny C12H10,biphenyl *H              HCO             HCCN           
 HCCO            HNC             HNCO            HNO             HNO2           
 HNO3            HO2             HCHO,formaldehy HCOOH           H2O2           
 (HCOOH)2        *N              NCO             *NH             NH2            
 NH2OH           *NO             NO2             NO3             NCN            
 N2H2            NH2NO2          N2H4            N2O             N2O3           
 N2O4            N2O5            N3              N3H             *O             
 *OH             *O2             O3              H2O(cr)         H2O(L)         

 NOTE. WEIGHT FRACTION OF FUEL IN TOTAL FUELS AND OF OXIDANT IN TOTAL OXIDANTS






 POINT ITN      T            H           O           C           N 

   1    2    1250.453      -7.853     -32.774      -1.868     -12.863

 Pinf/Pt = 1.749568
   2    4    1179.487      -8.051     -33.967      -1.772     -13.051

 Pinf/Pt = 1.740931
   2    2    1180.070      -8.049     -33.956      -1.773     -13.049

 Pinf/Pt = 1.740995
   2    1    1180.066      -8.049     -33.956      -1.773     -13.050

   3    5     948.383      -9.012     -39.404      -1.449     -13.989

   3    3     955.330      -8.975     -39.196      -1.459     -13.952

   3    2     955.355      -8.975     -39.195      -1.459     -13.952






              THEORETICAL ROCKET PERFORMANCE ASSUMING EQUILIBRIUM

           COMPOSITION DURING EXPANSION FROM INFINITE AREA COMBUSTOR

 Pin =   351.4 PSIA
 CASE =                

             REACTANT                    WT FRACTION      ENERGY      TEMP
                                          (SEE NOTE)     KJ/KG-MOL      K  
 OXIDANT     H2O2(L)                      0.9900000   -190013.250    273.150
 OXIDANT     H2O(L)                       0.0100000   -287717.011    273.150
 FUEL        ABS                          1.0000000     62630.000    273.150

 O/F=    1.00000  %FUEL= 50.000000  R,EQ.RATIO= 3.519385  PHI,EQ.RATIO= 6.086818

                 CHAMBER   THROAT     EXIT
 Pinf/P            1.0000   1.7410   20.019
 P, BAR            24.230   13.917   1.2103
 T, K             1250.45  1180.07   955.36
 RHO, KG/CU M    3.9711 0 2.4596 0 2.8448-1
 H, KJ/KG        -2297.11 -2622.83 -3818.95
 U, KJ/KG        -2907.26 -3188.66 -4244.41
 G, KJ/KG        -17055.4 -16550.4 -15094.4
 S, KJ/(KG)(K)    11.8024  11.8024  11.8024

 M, (1/n)          17.040   17.340   18.670
 MW, MOL WT        15.306   15.244   14.921
 (dLV/dLP)t      -1.09360 -1.10006 -1.10397
 (dLV/dLT)p        2.1422   2.3169   2.7213
 Cp, KJ/(KG)(K)    9.5491  11.1197  15.7348
 GAMMAs            1.1640   1.1513   1.1181
 SON VEL,M/SEC      842.7    807.1    689.7
 MACH NUMBER        0.000    1.000    2.529

 PERFORMANCE PARAMETERS

 Ae/At                      1.0000   4.0000
 CSTAR, M/SEC               1220.5   1220.5
 CF                         0.6613   1.4294
 Ivac, M/SEC                1508.2   1988.5
 Isp, M/SEC                  807.1   1744.6


 MOLE FRACTIONS

 CH4              0.04788  0.04569  0.03421
 *CO              0.33656  0.30882  0.18814
 *CO2             0.02925  0.03799  0.07943
 C2H4             0.00001  0.00000  0.00000
 C2H6             0.00001  0.00000  0.00000
 HCN              0.00002  0.00001  0.00000
 *H2              0.40098  0.39473  0.37793
 H2O              0.05464  0.06311  0.09141
 NH3              0.00018  0.00014  0.00005
 *N2              0.02869  0.02860  0.02804
 C(gr)            0.10178  0.12091  0.20078

  * THERMODYNAMIC PROPERTIES FITTED TO 20000.K

    PRODUCTS WHICH WERE CONSIDERED BUT WHOSE MOLE FRACTIONS
    WERE LESS THAN 5.000000E-06 FOR ALL ASSIGNED CONDITIONS

 *C              *CH             CH2             CH3             CH2OH          
 CH3O            CH3OH           CH3OOH          *CN             CNN            
 COOH            *C2             C2H             C2H2,acetylene  C2H2,vinylidene
 CH2CO,ketene    O(CH)2O         HO(CO)2OH       C2H3,vinyl      CH3CN          
 CH3CO,acetyl    C2H4O,ethylen-o CH3CHO,ethanal  CH3COOH         OHCH2COOH      
 C2H5            CH3N2CH3        C2H5OH          CH3OCH3         CH3O2CH3       
 CCN             CNC             OCCN            C2N2            C2O            
 *C3             C3H3,1-propynl  C3H3,2-propynl  C3H4,allene     C3H4,propyne   
 C3H4,cyclo-     C3H5,allyl      C3H6,propylene  C3H6,cyclo-     C3H6O,propylox 
 C3H6O,acetone   C3H6O,propanal  C3H7,n-propyl   C3H7,i-propyl   C3H8           
 C3H8O,1propanol C3H8O,2propanol CNCOCN          C3O2            *C4            
 C4H2,butadiyne  C4H4,1,3-cyclo- C4H6,butadiene  C4H6,1butyne    C4H6,2butyne   
 C4H6,cyclo-     C4H8,1-butene   C4H8,cis2-buten C4H8,tr2-butene C4H8,isobutene 
 C4H8,cyclo-     (CH3COOH)2      C4H9,n-butyl    C4H9,i-butyl    C4H9,s-butyl   
 C4H9,t-butyl    C4H10,n-butane  C4H10,isobutane C4N2            *C5            
 C5H6,1,3cyclo-  C5H8,cyclo-     C5H10,1-pentene C5H10,cyclo-    C5H11,pentyl   
 C5H11,t-pentyl  C5H12,n-pentane C5H12,i-pentane CH3C(CH3)2CH3   C6H2           
 C6H5,phenyl     C6H5O,phenoxy   C6H6            C6H5OH,phenol   C6H10,cyclo-   
 C6H12,1-hexene  C6H12,cyclo-    C6H13,n-hexyl   C6H14,n-hexane  C7H7,benzyl    
 C7H8            C7H8O,cresol-mx C7H14,1-heptene C7H15,n-heptyl  C7H16,n-heptane
 C7H16,2-methylh C8H8,styrene    C8H10,ethylbenz C8H16,1-octene  C8H17,n-octyl  
 C8H18,n-octane  C8H18,isooctane C9H19,n-nonyl   C10H8,naphthale C10H21,n-decyl 
 C12H9,o-bipheny C12H10,biphenyl *H              HCO             HCCN           
 HCCO            HNC             HNCO            HNO             HNO2           
 HNO3            HO2             HCHO,formaldehy HCOOH           H2O2           
 (HCOOH)2        *N              NCO             *NH             NH2            
 NH2OH           *NO             NO2             NO3             NCN            
 N2H2            NH2NO2          N2H4            N2O             N2O3           
 N2O4            N2O5            N3              N3H             *O             
 *OH             *O2             O3              H2O(cr)         H2O(L)         

 NOTE. WEIGHT FRACTION OF FUEL IN TOTAL FUELS AND OF OXIDANT IN TOTAL OXIDANTS





           THEORETICAL ROCKET PERFORMANCE ASSUMING FROZEN COMPOSITION

 Pin =   351.4 PSIA
 CASE =                

             REACTANT                    WT FRACTION      ENERGY      TEMP
                                          (SEE NOTE)     KJ/KG-MOL      K  
 OXIDANT     H2O2(L)                      0.9900000   -190013.250    273.150
 OXIDANT     H2O(L)                       0.0100000   -287717.011    273.150
 FUEL        ABS                          1.0000000     62630.000    273.150

 O/F=    1.00000  %FUEL= 50.000000  R,EQ.RATIO= 3.519385  PHI,EQ.RATIO= 6.086818

                 CHAMBER   THROAT     EXIT
 Pinf/P            1.0000   1.8186   28.060
 P, BAR            24.230   13.324  0.86352
 T, K             1250.45  1100.64   584.74
 RHO, KG/CU M    3.9711 0 2.4809 0 3.0265-1
 H, KJ/KG        -2297.11 -2639.79 -3736.27
 U, KJ/KG        -2907.26 -3176.85 -4021.59
 G, KJ/KG        -17055.4 -15630.0 -10637.6
 S, KJ/(KG)(K)    11.8024  11.8024  11.8024

 M, (1/n)          17.040   17.040   17.040
 MW, MOL WT        15.306   15.306   15.306
 Cp, KJ/(KG)(K)    2.3189   2.2549   1.9823
 GAMMAs            1.2665   1.2762   1.3265
 SON VEL,M/SEC      879.1    827.9    615.2
 MACH NUMBER        0.000    1.000    2.758

 PERFORMANCE PARAMETERS

 Ae/At                      1.0000   4.0000
 CSTAR, M/SEC               1179.7   1179.7
 CF                         0.7017   1.4381
 Ivac, M/SEC                1476.6   1864.7
 Isp, M/SEC                  827.9   1696.6

 MOLE FRACTIONS

 CH4             0.04788   *CO             0.33656   *CO2            0.02925
 C2H4            0.00001   C2H6            0.00001   HCN             0.00002
 *H2             0.40098   H2O             0.05464   NH3             0.00018
 *N2             0.02869   C(gr)           0.10178

  * THERMODYNAMIC PROPERTIES FITTED TO 20000.K

    PRODUCTS WHICH WERE CONSIDERED BUT WHOSE MOLE FRACTIONS
    WERE LESS THAN 5.000000E-06 FOR ALL ASSIGNED CONDITIONS

 *C              *CH             CH2             CH3             CH2OH          
 CH3O            CH3OH           CH3OOH          *CN             CNN            
 COOH            *C2             C2H             C2H2,acetylene  C2H2,vinylidene
 CH2CO,ketene    O(CH)2O         HO(CO)2OH       C2H3,vinyl      CH3CN          
 CH3CO,acetyl    C2H4O,ethylen-o CH3CHO,ethanal  CH3COOH         OHCH2COOH      
 C2H5            CH3N2CH3        C2H5OH          CH3OCH3         CH3O2CH3       
 CCN             CNC             OCCN            C2N2            C2O            
 *C3             C3H3,1-propynl  C3H3,2-propynl  C3H4,allene     C3H4,propyne   
 C3H4,cyclo-     C3H5,allyl      C3H6,propylene  C3H6,cyclo-     C3H6O,propylox 
 C3H6O,acetone   C3H6O,propanal  C3H7,n-propyl   C3H7,i-propyl   C3H8           
 C3H8O,1propanol C3H8O,2propanol CNCOCN          C3O2            *C4            
 C4H2,butadiyne  C4H4,1,3-cyclo- C4H6,butadiene  C4H6,1butyne    C4H6,2butyne   
 C4H6,cyclo-     C4H8,1-butene   C4H8,cis2-buten C4H8,tr2-butene C4H8,isobutene 
 C4H8,cyclo-     (CH3COOH)2      C4H9,n-butyl    C4H9,i-butyl    C4H9,s-butyl   
 C4H9,t-butyl    C4H10,n-butane  C4H10,isobutane C4N2            *C5            
 C5H6,1,3cyclo-  C5H8,cyclo-     C5H10,1-pentene C5H10,cyclo-    C5H11,pentyl   
 C5H11,t-pentyl  C5H12,n-pentane C5H12,i-pentane CH3C(CH3)2CH3   C6H2           
 C6H5,phenyl     C6H5O,phenoxy   C6H6            C6H5OH,phenol   C6H10,cyclo-   
 C6H12,1-hexene  C6H12,cyclo-    C6H13,n-hexyl   C6H14,n-hexane  C7H7,benzyl    
 C7H8            C7H8O,cresol-mx C7H14,1-heptene C7H15,n-heptyl  C7H16,n-heptane
 C7H16,2-methylh C8H8,styrene    C8H10,ethylbenz C8H16,1-octene  C8H17,n-octyl  
 C8H18,n-octane  C8H18,isooctane C9H19,n-nonyl   C10H8,naphthale C10H21,n-decyl 
 C12H9,o-bipheny C12H10,biphenyl *H              HCO             HCCN           
 HCCO            HNC             HNCO            HNO             HNO2           
 HNO3            HO2             HCHO,formaldehy HCOOH           H2O2           
 (HCOOH)2        *N              NCO             *NH             NH2            
 NH2OH           *NO             NO2             NO3             NCN            
 N2H2            NH2NO2          N2H4            N2O             N2O3           
 N2O4            N2O5            N3              N3H             *O             
 *OH             *O2             O3              H2O(cr)         H2O(L)         

 NOTE. WEIGHT FRACTION OF FUEL IN TOTAL FUELS AND OF OXIDANT IN TOTAL OXIDANTS






 POINT ITN      T            H           O           C           N 

   1    2    1250.483      -7.853     -32.773      -1.868     -12.863

 Pinf/Pt = 1.749568
   2    4    1179.514      -8.051     -33.966      -1.772     -13.051

 Pinf/Pt = 1.740932
   2    2    1180.097      -8.049     -33.955      -1.773     -13.049

 Pinf/Pt = 1.740996
   2    1    1180.093      -8.049     -33.955      -1.773     -13.049

   3    5     948.400      -9.012     -39.403      -1.449     -13.989

   3    3     955.348      -8.975     -39.195      -1.459     -13.952

   3    2     955.373      -8.975     -39.194      -1.459     -13.952






              THEORETICAL ROCKET PERFORMANCE ASSUMING EQUILIBRIUM

           COMPOSITION DURING EXPANSION FROM INFINITE AREA COMBUSTOR

 Pin =   351.6 PSIA
 CASE =                

             REACTANT                    WT FRACTION      ENERGY      TEMP
                                          (SEE NOTE)     KJ/KG-MOL      K  
 OXIDANT     H2O2(L)                      0.9900000   -190013.250    273.150
 OXIDANT     H2O(L)                       0.0100000   -287717.011    273.150
 FUEL        ABS                          1.0000000     62630.000    273.150

 O/F=    1.00000  %FUEL= 50.000000  R,EQ.RATIO= 3.519385  PHI,EQ.RATIO= 6.086818

                 CHAMBER   THROAT     EXIT
 Pinf/P            1.0000   1.7410   20.019
 P, BAR            24.240   13.923   1.2108
 T, K             1250.48  1180.09   955.37
 RHO, KG/CU M    3.9727 0 2.4606 0 2.8459-1
 H, KJ/KG        -2297.11 -2622.83 -3818.97
 U, KJ/KG        -2907.27 -3188.67 -4244.44
 G, KJ/KG        -17055.5 -16550.5 -15094.5
 S, KJ/(KG)(K)    11.8022  11.8022  11.8022

 M, (1/n)          17.040   17.340   18.670
 MW, MOL WT        15.306   15.244   14.921
 (dLV/dLP)t      -1.09361 -1.10007 -1.10397
 (dLV/dLT)p        2.1423   2.3169   2.7213
 Cp, KJ/(KG)(K)    9.5489  11.1194  15.7344
 GAMMAs            1.1640   1.1513   1.1181
 SON VEL,M/SEC      842.8    807.1    689.7
 MACH NUMBER        0.000    1.000    2.529

 PERFORMANCE PARAMETERS

 Ae/At                      1.0000   4.0000
 CSTAR, M/SEC               1220.5   1220.5
 CF                         0.6613   1.4294
 Ivac, M/SEC                1508.2   1988.5
 Isp, M/SEC                  807.1   1744.6


 MOLE FRACTIONS

 CH4              0.04789  0.04570  0.03422
 *CO              0.33656  0.30882  0.18814
 *CO2             0.02925  0.03799  0.07943
 C2H4             0.00001  0.00000  0.00000
 C2H6             0.00001  0.00000  0.00000
 HCN              0.00002  0.00001  0.00000
 *H2              0.40097  0.39472  0.37792
 H2O              0.05465  0.06311  0.09142
 NH3              0.00018  0.00014  0.00005
 *N2              0.02869  0.02860  0.02804
 C(gr)            0.10177  0.12091  0.20079

  * THERMODYNAMIC PROPERTIES FITTED TO 20000.K

    PRODUCTS WHICH WERE CONSIDERED BUT WHOSE MOLE FRACTIONS
    WERE LESS THAN 5.000000E-06 FOR ALL ASSIGNED CONDITIONS

 *C              *CH             CH2             CH3             CH2OH          
 CH3O            CH3OH           CH3OOH          *CN             CNN            
 COOH            *C2             C2H             C2H2,acetylene  C2H2,vinylidene
 CH2CO,ketene    O(CH)2O         HO(CO)2OH       C2H3,vinyl      CH3CN          
 CH3CO,acetyl    C2H4O,ethylen-o CH3CHO,ethanal  CH3COOH         OHCH2COOH      
 C2H5            CH3N2CH3        C2H5OH          CH3OCH3         CH3O2CH3       
 CCN             CNC             OCCN            C2N2            C2O            
 *C3             C3H3,1-propynl  C3H3,2-propynl  C3H4,allene     C3H4,propyne   
 C3H4,cyclo-     C3H5,allyl      C3H6,propylene  C3H6,cyclo-     C3H6O,propylox 
 C3H6O,acetone   C3H6O,propanal  C3H7,n-propyl   C3H7,i-propyl   C3H8           
 C3H8O,1propanol C3H8O,2propanol CNCOCN          C3O2            *C4            
 C4H2,butadiyne  C4H4,1,3-cyclo- C4H6,butadiene  C4H6,1butyne    C4H6,2butyne   
 C4H6,cyclo-     C4H8,1-butene   C4H8,cis2-buten C4H8,tr2-butene C4H8,isobutene 
 C4H8,cyclo-     (CH3COOH)2      C4H9,n-butyl    C4H9,i-butyl    C4H9,s-butyl   
 C4H9,t-butyl    C4H10,n-butane  C4H10,isobutane C4N2            *C5            
 C5H6,1,3cyclo-  C5H8,cyclo-     C5H10,1-pentene C5H10,cyclo-    C5H11,pentyl   
 C5H11,t-pentyl  C5H12,n-pentane C5H12,i-pentane CH3C(CH3)2CH3   C6H2           
 C6H5,phenyl     C6H5O,phenoxy   C6H6            C6H5OH,phenol   C6H10,cyclo-   
 C6H12,1-hexene  C6H12,cyclo-    C6H13,n-hexyl   C6H14,n-hexane  C7H7,benzyl    
 C7H8            C7H8O,cresol-mx C7H14,1-heptene C7H15,n-heptyl  C7H16,n-heptane
 C7H16,2-methylh C8H8,styrene    C8H10,ethylbenz C8H16,1-octene  C8H17,n-octyl  
 C8H18,n-octane  C8H18,isooctane C9H19,n-nonyl   C10H8,naphthale C10H21,n-decyl 
 C12H9,o-bipheny C12H10,biphenyl *H              HCO             HCCN           
 HCCO            HNC             HNCO            HNO             HNO2           
 HNO3            HO2             HCHO,formaldehy HCOOH           H2O2           
 (HCOOH)2        *N              NCO             *NH             NH2            
 NH2OH           *NO             NO2             NO3             NCN            
 N2H2            NH2NO2          N2H4            N2O             N2O3           
 N2O4            N2O5            N3              N3H             *O             
 *OH             *O2             O3              H2O(cr)         H2O(L)         

 NOTE. WEIGHT FRACTION OF FUEL IN TOTAL FUELS AND OF OXIDANT IN TOTAL OXIDANTS





           THEORETICAL ROCKET PERFORMANCE ASSUMING FROZEN COMPOSITION

 Pin =   351.6 PSIA
 CASE =                

             REACTANT                    WT FRACTION      ENERGY      TEMP
                                          (SEE NOTE)     KJ/KG-MOL      K  
 OXIDANT     H2O2(L)                      0.9900000   -190013.250    273.150
 OXIDANT     H2O(L)                       0.0100000   -287717.011    273.150
 FUEL        ABS                          1.0000000     62630.000    273.150

 O/F=    1.00000  %FUEL= 50.000000  R,EQ.RATIO= 3.519385  PHI,EQ.RATIO= 6.086818

                 CHAMBER   THROAT     EXIT
 Pinf/P            1.0000   1.8186   28.059
 P, BAR            24.240   13.329  0.86388
 T, K             1250.48  1100.67   584.76
 RHO, KG/CU M    3.9727 0 2.4819 0 3.0277-1
 H, KJ/KG        -2297.11 -2639.80 -3736.29
 U, KJ/KG        -2907.27 -3176.86 -4021.62
 G, KJ/KG        -17055.5 -15630.1 -10637.8
 S, KJ/(KG)(K)    11.8022  11.8022  11.8022

 M, (1/n)          17.040   17.040   17.040
 MW, MOL WT        15.306   15.306   15.306
 Cp, KJ/(KG)(K)    2.3189   2.2549   1.9823
 GAMMAs            1.2665   1.2761   1.3265
 SON VEL,M/SEC      879.1    827.9    615.2
 MACH NUMBER        0.000    1.000    2.758

 PERFORMANCE PARAMETERS

 Ae/At                      1.0000   4.0000
 CSTAR, M/SEC               1179.8   1179.8
 CF                         0.7017   1.4381
 Ivac, M/SEC                1476.6   1864.8
 Isp, M/SEC                  827.9   1696.6

 MOLE FRACTIONS

 CH4             0.04789   *CO             0.33656   *CO2            0.02925
 C2H4            0.00001   C2H6            0.00001   HCN             0.00002
 *H2             0.40097   H2O             0.05465   NH3             0.00018
 *N2             0.02869   C(gr)           0.10177

  * THERMODYNAMIC PROPERTIES FITTED TO 20000.K

    PRODUCTS WHICH WERE CONSIDERED BUT WHOSE MOLE FRACTIONS
    WERE LESS THAN 5.000000E-06 FOR ALL ASSIGNED CONDITIONS

 *C              *CH             CH2             CH3             CH2OH          
 CH3O            CH3OH           CH3OOH          *CN             CNN            
 COOH            *C2             C2H             C2H2,acetylene  C2H2,vinylidene
 CH2CO,ketene    O(CH)2O         HO(CO)2OH       C2H3,vinyl      CH3CN          
 CH3CO,acetyl    C2H4O,ethylen-o CH3CHO,ethanal  CH3COOH         OHCH2COOH      
 C2H5            CH3N2CH3        C2H5OH          CH3OCH3         CH3O2CH3       
 CCN             CNC             OCCN            C2N2            C2O            
 *C3             C3H3,1-propynl  C3H3,2-propynl  C3H4,allene     C3H4,propyne   
 C3H4,cyclo-     C3H5,allyl      C3H6,propylene  C3H6,cyclo-     C3H6O,propylox 
 C3H6O,acetone   C3H6O,propanal  C3H7,n-propyl   C3H7,i-propyl   C3H8           
 C3H8O,1propanol C3H8O,2propanol CNCOCN          C3O2            *C4            
 C4H2,butadiyne  C4H4,1,3-cyclo- C4H6,butadiene  C4H6,1butyne    C4H6,2butyne   
 C4H6,cyclo-     C4H8,1-butene   C4H8,cis2-buten C4H8,tr2-butene C4H8,isobutene 
 C4H8,cyclo-     (CH3COOH)2      C4H9,n-butyl    C4H9,i-butyl    C4H9,s-butyl   
 C4H9,t-butyl    C4H10,n-butane  C4H10,isobutane C4N2            *C5            
 C5H6,1,3cyclo-  C5H8,cyclo-     C5H10,1-pentene C5H10,cyclo-    C5H11,pentyl   
 C5H11,t-pentyl  C5H12,n-pentane C5H12,i-pentane CH3C(CH3)2CH3   C6H2           
 C6H5,phenyl     C6H5O,phenoxy   C6H6            C6H5OH,phenol   C6H10,cyclo-   
 C6H12,1-hexene  C6H12,cyclo-    C6H13,n-hexyl   C6H14,n-hexane  C7H7,benzyl    
 C7H8            C7H8O,cresol-mx C7H14,1-heptene C7H15,n-heptyl  C7H16,n-heptane
 C7H16,2-methylh C8H8,styrene    C8H10,ethylbenz C8H16,1-octene  C8H17,n-octyl  
 C8H18,n-octane  C8H18,isooctane C9H19,n-nonyl   C10H8,naphthale C10H21,n-decyl 
 C12H9,o-bipheny C12H10,biphenyl *H              HCO             HCCN           
 HCCO            HNC             HNCO            HNO             HNO2           
 HNO3            HO2             HCHO,formaldehy HCOOH           H2O2           
 (HCOOH)2        *N              NCO             *NH             NH2            
 NH2OH           *NO             NO2             NO3             NCN            
 N2H2            NH2NO2          N2H4            N2O             N2O3           
 N2O4            N2O5            N3              N3H             *O             
 *OH             *O2             O3              H2O(cr)         H2O(L)         

 NOTE. WEIGHT FRACTION OF FUEL IN TOTAL FUELS AND OF OXIDANT IN TOTAL OXIDANTS






 POINT ITN      T            H           O           C           N 

   1    2    1250.513      -7.853     -32.773      -1.868     -12.863

 Pinf/Pt = 1.749569
   2    4    1179.542      -8.051     -33.965      -1.772     -13.051

 Pinf/Pt = 1.740933
   2    2    1180.125      -8.049     -33.955      -1.773     -13.049

 Pinf/Pt = 1.740997
   2    1    1180.120      -8.049     -33.955      -1.773     -13.049

   3    5     948.418      -9.012     -39.403      -1.449     -13.989

   3    3     955.366      -8.975     -39.194      -1.459     -13.952

   3    2     955.391      -8.975     -39.194      -1.459     -13.951






              THEORETICAL ROCKET PERFORMANCE ASSUMING EQUILIBRIUM

           COMPOSITION DURING EXPANSION FROM INFINITE AREA COMBUSTOR

 Pin =   351.7 PSIA
 CASE =                

             REACTANT                    WT FRACTION      ENERGY      TEMP
                                          (SEE NOTE)     KJ/KG-MOL      K  
 OXIDANT     H2O2(L)                      0.9900000   -190013.250    273.150
 OXIDANT     H2O(L)                       0.0100000   -287717.011    273.150
 FUEL        ABS                          1.0000000     62630.000    273.150

 O/F=    1.00000  %FUEL= 50.000000  R,EQ.RATIO= 3.519385  PHI,EQ.RATIO= 6.086818

                 CHAMBER   THROAT     EXIT
 Pinf/P            1.0000   1.7410   20.019
 P, BAR            24.250   13.929   1.2113
 T, K             1250.51  1180.12   955.39
 RHO, KG/CU M    3.9743 0 2.4616 0 2.8470-1
 H, KJ/KG        -2297.11 -2622.84 -3818.98
 U, KJ/KG        -2907.28 -3188.69 -4244.46
 G, KJ/KG        -17055.6 -16550.6 -15094.5
 S, KJ/(KG)(K)    11.8020  11.8020  11.8020

 M, (1/n)          17.040   17.341   18.670
 MW, MOL WT        15.306   15.244   14.921
 (dLV/dLP)t      -1.09361 -1.10007 -1.10397
 (dLV/dLT)p        2.1423   2.3169   2.7213
 Cp, KJ/(KG)(K)    9.5488  11.1192  15.7339
 GAMMAs            1.1640   1.1513   1.1181
 SON VEL,M/SEC      842.8    807.1    689.7
 MACH NUMBER        0.000    1.000    2.529

 PERFORMANCE PARAMETERS

 Ae/At                      1.0000   4.0000
 CSTAR, M/SEC               1220.5   1220.5
 CF                         0.6613   1.4294
 Ivac, M/SEC                1508.2   1988.5
 Isp, M/SEC                  807.1   1744.6


 MOLE FRACTIONS

 CH4              0.04789  0.04571  0.03422
 *CO              0.33657  0.30882  0.18814
 *CO2             0.02926  0.03799  0.07943
 C2H4             0.00001  0.00000  0.00000
 C2H6             0.00001  0.00000  0.00000
 HCN              0.00002  0.00001  0.00000
 *H2              0.40096  0.39471  0.37791
 H2O              0.05465  0.06311  0.09142
 NH3              0.00018  0.00014  0.00005
 *N2              0.02869  0.02860  0.02804
 C(gr)            0.10177  0.12091  0.20079

  * THERMODYNAMIC PROPERTIES FITTED TO 20000.K

    PRODUCTS WHICH WERE CONSIDERED BUT WHOSE MOLE FRACTIONS
    WERE LESS THAN 5.000000E-06 FOR ALL ASSIGNED CONDITIONS

 *C              *CH             CH2             CH3             CH2OH          
 CH3O            CH3OH           CH3OOH          *CN             CNN            
 COOH            *C2             C2H             C2H2,acetylene  C2H2,vinylidene
 CH2CO,ketene    O(CH)2O         HO(CO)2OH       C2H3,vinyl      CH3CN          
 CH3CO,acetyl    C2H4O,ethylen-o CH3CHO,ethanal  CH3COOH         OHCH2COOH      
 C2H5            CH3N2CH3        C2H5OH          CH3OCH3         CH3O2CH3       
 CCN             CNC             OCCN            C2N2            C2O            
 *C3             C3H3,1-propynl  C3H3,2-propynl  C3H4,allene     C3H4,propyne   
 C3H4,cyclo-     C3H5,allyl      C3H6,propylene  C3H6,cyclo-     C3H6O,propylox 
 C3H6O,acetone   C3H6O,propanal  C3H7,n-propyl   C3H7,i-propyl   C3H8           
 C3H8O,1propanol C3H8O,2propanol CNCOCN          C3O2            *C4            
 C4H2,butadiyne  C4H4,1,3-cyclo- C4H6,butadiene  C4H6,1butyne    C4H6,2butyne   
 C4H6,cyclo-     C4H8,1-butene   C4H8,cis2-buten C4H8,tr2-butene C4H8,isobutene 
 C4H8,cyclo-     (CH3COOH)2      C4H9,n-butyl    C4H9,i-butyl    C4H9,s-butyl   
 C4H9,t-butyl    C4H10,n-butane  C4H10,isobutane C4N2            *C5            
 C5H6,1,3cyclo-  C5H8,cyclo-     C5H10,1-pentene C5H10,cyclo-    C5H11,pentyl   
 C5H11,t-pentyl  C5H12,n-pentane C5H12,i-pentane CH3C(CH3)2CH3   C6H2           
 C6H5,phenyl     C6H5O,phenoxy   C6H6            C6H5OH,phenol   C6H10,cyclo-   
 C6H12,1-hexene  C6H12,cyclo-    C6H13,n-hexyl   C6H14,n-hexane  C7H7,benzyl    
 C7H8            C7H8O,cresol-mx C7H14,1-heptene C7H15,n-heptyl  C7H16,n-heptane
 C7H16,2-methylh C8H8,styrene    C8H10,ethylbenz C8H16,1-octene  C8H17,n-octyl  
 C8H18,n-octane  C8H18,isooctane C9H19,n-nonyl   C10H8,naphthale C10H21,n-decyl 
 C12H9,o-bipheny C12H10,biphenyl *H              HCO             HCCN           
 HCCO            HNC             HNCO            HNO             HNO2           
 HNO3            HO2             HCHO,formaldehy HCOOH           H2O2           
 (HCOOH)2        *N              NCO             *NH             NH2            
 NH2OH           *NO             NO2             NO3             NCN            
 N2H2            NH2NO2          N2H4            N2O             N2O3           
 N2O4            N2O5            N3              N3H             *O             
 *OH             *O2             O3              H2O(cr)         H2O(L)         

 NOTE. WEIGHT FRACTION OF FUEL IN TOTAL FUELS AND OF OXIDANT IN TOTAL OXIDANTS





           THEORETICAL ROCKET PERFORMANCE ASSUMING FROZEN COMPOSITION

 Pin =   351.7 PSIA
 CASE =                

             REACTANT                    WT FRACTION      ENERGY      TEMP
                                          (SEE NOTE)     KJ/KG-MOL      K  
 OXIDANT     H2O2(L)                      0.9900000   -190013.250    273.150
 OXIDANT     H2O(L)                       0.0100000   -287717.011    273.150
 FUEL        ABS                          1.0000000     62630.000    273.150

 O/F=    1.00000  %FUEL= 50.000000  R,EQ.RATIO= 3.519385  PHI,EQ.RATIO= 6.086818

                 CHAMBER   THROAT     EXIT
 Pinf/P            1.0000   1.8186   28.059
 P, BAR            24.250   13.335  0.86425
 T, K             1250.51  1100.70   584.79
 RHO, KG/CU M    3.9743 0 2.4829 0 3.0289-1
 H, KJ/KG        -2297.11 -2639.80 -3736.32
 U, KJ/KG        -2907.28 -3176.87 -4021.65
 G, KJ/KG        -17055.6 -15630.3 -10637.9
 S, KJ/(KG)(K)    11.8020  11.8020  11.8020

 M, (1/n)          17.040   17.040   17.040
 MW, MOL WT        15.306   15.306   15.306
 Cp, KJ/(KG)(K)    2.3189   2.2549   1.9823
 GAMMAs            1.2665   1.2761   1.3265
 SON VEL,M/SEC      879.1    827.9    615.2
 MACH NUMBER        0.000    1.000    2.758

 PERFORMANCE PARAMETERS

 Ae/At                      1.0000   4.0000
 CSTAR, M/SEC               1179.8   1179.8
 CF                         0.7017   1.4381
 Ivac, M/SEC                1476.6   1864.8
 Isp, M/SEC                  827.9   1696.6

 MOLE FRACTIONS

 CH4             0.04789   *CO             0.33657   *CO2            0.02926
 C2H4            0.00001   C2H6            0.00001   HCN             0.00002
 *H2             0.40096   H2O             0.05465   NH3             0.00018
 *N2             0.02869   C(gr)           0.10177

  * THERMODYNAMIC PROPERTIES FITTED TO 20000.K

    PRODUCTS WHICH WERE CONSIDERED BUT WHOSE MOLE FRACTIONS
    WERE LESS THAN 5.000000E-06 FOR ALL ASSIGNED CONDITIONS

 *C              *CH             CH2             CH3             CH2OH          
 CH3O            CH3OH           CH3OOH          *CN             CNN            
 COOH            *C2             C2H             C2H2,acetylene  C2H2,vinylidene
 CH2CO,ketene    O(CH)2O         HO(CO)2OH       C2H3,vinyl      CH3CN          
 CH3CO,acetyl    C2H4O,ethylen-o CH3CHO,ethanal  CH3COOH         OHCH2COOH      
 C2H5            CH3N2CH3        C2H5OH          CH3OCH3         CH3O2CH3       
 CCN             CNC             OCCN            C2N2            C2O            
 *C3             C3H3,1-propynl  C3H3,2-propynl  C3H4,allene     C3H4,propyne   
 C3H4,cyclo-     C3H5,allyl      C3H6,propylene  C3H6,cyclo-     C3H6O,propylox 
 C3H6O,acetone   C3H6O,propanal  C3H7,n-propyl   C3H7,i-propyl   C3H8           
 C3H8O,1propanol C3H8O,2propanol CNCOCN          C3O2            *C4            
 C4H2,butadiyne  C4H4,1,3-cyclo- C4H6,butadiene  C4H6,1butyne    C4H6,2butyne   
 C4H6,cyclo-     C4H8,1-butene   C4H8,cis2-buten C4H8,tr2-butene C4H8,isobutene 
 C4H8,cyclo-     (CH3COOH)2      C4H9,n-butyl    C4H9,i-butyl    C4H9,s-butyl   
 C4H9,t-butyl    C4H10,n-butane  C4H10,isobutane C4N2            *C5            
 C5H6,1,3cyclo-  C5H8,cyclo-     C5H10,1-pentene C5H10,cyclo-    C5H11,pentyl   
 C5H11,t-pentyl  C5H12,n-pentane C5H12,i-pentane CH3C(CH3)2CH3   C6H2           
 C6H5,phenyl     C6H5O,phenoxy   C6H6            C6H5OH,phenol   C6H10,cyclo-   
 C6H12,1-hexene  C6H12,cyclo-    C6H13,n-hexyl   C6H14,n-hexane  C7H7,benzyl    
 C7H8            C7H8O,cresol-mx C7H14,1-heptene C7H15,n-heptyl  C7H16,n-heptane
 C7H16,2-methylh C8H8,styrene    C8H10,ethylbenz C8H16,1-octene  C8H17,n-octyl  
 C8H18,n-octane  C8H18,isooctane C9H19,n-nonyl   C10H8,naphthale C10H21,n-decyl 
 C12H9,o-bipheny C12H10,biphenyl *H              HCO             HCCN           
 HCCO            HNC             HNCO            HNO             HNO2           
 HNO3            HO2             HCHO,formaldehy HCOOH           H2O2           
 (HCOOH)2        *N              NCO             *NH             NH2            
 NH2OH           *NO             NO2             NO3             NCN            
 N2H2            NH2NO2          N2H4            N2O             N2O3           
 N2O4            N2O5            N3              N3H             *O             
 *OH             *O2             O3              H2O(cr)         H2O(L)         

 NOTE. WEIGHT FRACTION OF FUEL IN TOTAL FUELS AND OF OXIDANT IN TOTAL OXIDANTS






 POINT ITN      T            H           O           C           N 

   1    2    1250.543      -7.853     -32.772      -1.868     -12.863

 Pinf/Pt = 1.749570
   2    4    1179.569      -8.051     -33.965      -1.772     -13.051

 Pinf/Pt = 1.740934
   2    2    1180.152      -8.049     -33.954      -1.773     -13.049

 Pinf/Pt = 1.740998
   2    1    1180.147      -8.049     -33.954      -1.773     -13.049

   3    5     948.436      -9.012     -39.402      -1.449     -13.988

   3    3     955.383      -8.974     -39.194      -1.459     -13.951

   3    2     955.409      -8.974     -39.193      -1.459     -13.951






              THEORETICAL ROCKET PERFORMANCE ASSUMING EQUILIBRIUM

           COMPOSITION DURING EXPANSION FROM INFINITE AREA COMBUSTOR

 Pin =   351.9 PSIA
 CASE =                

             REACTANT                    WT FRACTION      ENERGY      TEMP
                                          (SEE NOTE)     KJ/KG-MOL      K  
 OXIDANT     H2O2(L)                      0.9900000   -190013.250    273.150
 OXIDANT     H2O(L)                       0.0100000   -287717.011    273.150
 FUEL        ABS                          1.0000000     62630.000    273.150

 O/F=    1.00000  %FUEL= 50.000000  R,EQ.RATIO= 3.519385  PHI,EQ.RATIO= 6.086818

                 CHAMBER   THROAT     EXIT
 Pinf/P            1.0000   1.7410   20.019
 P, BAR            24.260   13.935   1.2118
 T, K             1250.54  1180.15   955.41
 RHO, KG/CU M    3.9759 0 2.4626 0 2.8482-1
 H, KJ/KG        -2297.11 -2622.84 -3819.00
 U, KJ/KG        -2907.29 -3188.70 -4244.48
 G, KJ/KG        -17055.7 -16550.7 -15094.5
 S, KJ/(KG)(K)    11.8018  11.8018  11.8018

 M, (1/n)          17.040   17.341   18.670
 MW, MOL WT        15.306   15.244   14.922
 (dLV/dLP)t      -1.09362 -1.10008 -1.10397
 (dLV/dLT)p        2.1423   2.3169   2.7213
 Cp, KJ/(KG)(K)    9.5486  11.1189  15.7335
 GAMMAs            1.1640   1.1513   1.1181
 SON VEL,M/SEC      842.8    807.1    689.7
 MACH NUMBER        0.000    1.000    2.529

 PERFORMANCE PARAMETERS

 Ae/At                      1.0000   4.0000
 CSTAR, M/SEC               1220.6   1220.6
 CF                         0.6613   1.4294
 Ivac, M/SEC                1508.2   1988.5
 Isp, M/SEC                  807.1   1744.6


 MOLE FRACTIONS

 CH4              0.04790  0.04571  0.03423
 *CO              0.33657  0.30882  0.18814
 *CO2             0.02926  0.03799  0.07943
 C2H4             0.00001  0.00000  0.00000
 C2H6             0.00001  0.00000  0.00000
 HCN              0.00002  0.00001  0.00000
 *H2              0.40095  0.39470  0.37790
 H2O              0.05465  0.06312  0.09143
 NH3              0.00018  0.00014  0.00005
 *N2              0.02869  0.02860  0.02804
 C(gr)            0.10177  0.12091  0.20079

  * THERMODYNAMIC PROPERTIES FITTED TO 20000.K

    PRODUCTS WHICH WERE CONSIDERED BUT WHOSE MOLE FRACTIONS
    WERE LESS THAN 5.000000E-06 FOR ALL ASSIGNED CONDITIONS

 *C              *CH             CH2             CH3             CH2OH          
 CH3O            CH3OH           CH3OOH          *CN             CNN            
 COOH            *C2             C2H             C2H2,acetylene  C2H2,vinylidene
 CH2CO,ketene    O(CH)2O         HO(CO)2OH       C2H3,vinyl      CH3CN          
 CH3CO,acetyl    C2H4O,ethylen-o CH3CHO,ethanal  CH3COOH         OHCH2COOH      
 C2H5            CH3N2CH3        C2H5OH          CH3OCH3         CH3O2CH3       
 CCN             CNC             OCCN            C2N2            C2O            
 *C3             C3H3,1-propynl  C3H3,2-propynl  C3H4,allene     C3H4,propyne   
 C3H4,cyclo-     C3H5,allyl      C3H6,propylene  C3H6,cyclo-     C3H6O,propylox 
 C3H6O,acetone   C3H6O,propanal  C3H7,n-propyl   C3H7,i-propyl   C3H8           
 C3H8O,1propanol C3H8O,2propanol CNCOCN          C3O2            *C4            
 C4H2,butadiyne  C4H4,1,3-cyclo- C4H6,butadiene  C4H6,1butyne    C4H6,2butyne   
 C4H6,cyclo-     C4H8,1-butene   C4H8,cis2-buten C4H8,tr2-butene C4H8,isobutene 
 C4H8,cyclo-     (CH3COOH)2      C4H9,n-butyl    C4H9,i-butyl    C4H9,s-butyl   
 C4H9,t-butyl    C4H10,n-butane  C4H10,isobutane C4N2            *C5            
 C5H6,1,3cyclo-  C5H8,cyclo-     C5H10,1-pentene C5H10,cyclo-    C5H11,pentyl   
 C5H11,t-pentyl  C5H12,n-pentane C5H12,i-pentane CH3C(CH3)2CH3   C6H2           
 C6H5,phenyl     C6H5O,phenoxy   C6H6            C6H5OH,phenol   C6H10,cyclo-   
 C6H12,1-hexene  C6H12,cyclo-    C6H13,n-hexyl   C6H14,n-hexane  C7H7,benzyl    
 C7H8            C7H8O,cresol-mx C7H14,1-heptene C7H15,n-heptyl  C7H16,n-heptane
 C7H16,2-methylh C8H8,styrene    C8H10,ethylbenz C8H16,1-octene  C8H17,n-octyl  
 C8H18,n-octane  C8H18,isooctane C9H19,n-nonyl   C10H8,naphthale C10H21,n-decyl 
 C12H9,o-bipheny C12H10,biphenyl *H              HCO             HCCN           
 HCCO            HNC             HNCO            HNO             HNO2           
 HNO3            HO2             HCHO,formaldehy HCOOH           H2O2           
 (HCOOH)2        *N              NCO             *NH             NH2            
 NH2OH           *NO             NO2             NO3             NCN            
 N2H2            NH2NO2          N2H4            N2O             N2O3           
 N2O4            N2O5            N3              N3H             *O             
 *OH             *O2             O3              H2O(cr)         H2O(L)         

 NOTE. WEIGHT FRACTION OF FUEL IN TOTAL FUELS AND OF OXIDANT IN TOTAL OXIDANTS





           THEORETICAL ROCKET PERFORMANCE ASSUMING FROZEN COMPOSITION

 Pin =   351.9 PSIA
 CASE =                

             REACTANT                    WT FRACTION      ENERGY      TEMP
                                          (SEE NOTE)     KJ/KG-MOL      K  
 OXIDANT     H2O2(L)                      0.9900000   -190013.250    273.150
 OXIDANT     H2O(L)                       0.0100000   -287717.011    273.150
 FUEL        ABS                          1.0000000     62630.000    273.150

 O/F=    1.00000  %FUEL= 50.000000  R,EQ.RATIO= 3.519385  PHI,EQ.RATIO= 6.086818

                 CHAMBER   THROAT     EXIT
 Pinf/P            1.0000   1.8186   28.059
 P, BAR            24.260   13.340  0.86461
 T, K             1250.54  1100.73   584.81
 RHO, KG/CU M    3.9759 0 2.4838 0 3.0301-1
 H, KJ/KG        -2297.11 -2639.80 -3736.34
 U, KJ/KG        -2907.29 -3176.88 -4021.68
 G, KJ/KG        -17055.7 -15630.4 -10638.1
 S, KJ/(KG)(K)    11.8018  11.8018  11.8018

 M, (1/n)          17.040   17.040   17.040
 MW, MOL WT        15.306   15.306   15.306
 Cp, KJ/(KG)(K)    2.3190   2.2549   1.9823
 GAMMAs            1.2665   1.2761   1.3265
 SON VEL,M/SEC      879.1    827.9    615.2
 MACH NUMBER        0.000    1.000    2.758

 PERFORMANCE PARAMETERS

 Ae/At                      1.0000   4.0000
 CSTAR, M/SEC               1179.8   1179.8
 CF                         0.7017   1.4381
 Ivac, M/SEC                1476.6   1864.8
 Isp, M/SEC                  827.9   1696.6

 MOLE FRACTIONS

 CH4             0.04790   *CO             0.33657   *CO2            0.02926
 C2H4            0.00001   C2H6            0.00001   HCN             0.00002
 *H2             0.40095   H2O             0.05465   NH3             0.00018
 *N2             0.02869   C(gr)           0.10177

  * THERMODYNAMIC PROPERTIES FITTED TO 20000.K

    PRODUCTS WHICH WERE CONSIDERED BUT WHOSE MOLE FRACTIONS
    WERE LESS THAN 5.000000E-06 FOR ALL ASSIGNED CONDITIONS

 *C              *CH             CH2             CH3             CH2OH          
 CH3O            CH3OH           CH3OOH          *CN             CNN            
 COOH            *C2             C2H             C2H2,acetylene  C2H2,vinylidene
 CH2CO,ketene    O(CH)2O         HO(CO)2OH       C2H3,vinyl      CH3CN          
 CH3CO,acetyl    C2H4O,ethylen-o CH3CHO,ethanal  CH3COOH         OHCH2COOH      
 C2H5            CH3N2CH3        C2H5OH          CH3OCH3         CH3O2CH3       
 CCN             CNC             OCCN            C2N2            C2O            
 *C3             C3H3,1-propynl  C3H3,2-propynl  C3H4,allene     C3H4,propyne   
 C3H4,cyclo-     C3H5,allyl      C3H6,propylene  C3H6,cyclo-     C3H6O,propylox 
 C3H6O,acetone   C3H6O,propanal  C3H7,n-propyl   C3H7,i-propyl   C3H8           
 C3H8O,1propanol C3H8O,2propanol CNCOCN          C3O2            *C4            
 C4H2,butadiyne  C4H4,1,3-cyclo- C4H6,butadiene  C4H6,1butyne    C4H6,2butyne   
 C4H6,cyclo-     C4H8,1-butene   C4H8,cis2-buten C4H8,tr2-butene C4H8,isobutene 
 C4H8,cyclo-     (CH3COOH)2      C4H9,n-butyl    C4H9,i-butyl    C4H9,s-butyl   
 C4H9,t-butyl    C4H10,n-butane  C4H10,isobutane C4N2            *C5            
 C5H6,1,3cyclo-  C5H8,cyclo-     C5H10,1-pentene C5H10,cyclo-    C5H11,pentyl   
 C5H11,t-pentyl  C5H12,n-pentane C5H12,i-pentane CH3C(CH3)2CH3   C6H2           
 C6H5,phenyl     C6H5O,phenoxy   C6H6            C6H5OH,phenol   C6H10,cyclo-   
 C6H12,1-hexene  C6H12,cyclo-    C6H13,n-hexyl   C6H14,n-hexane  C7H7,benzyl    
 C7H8            C7H8O,cresol-mx C7H14,1-heptene C7H15,n-heptyl  C7H16,n-heptane
 C7H16,2-methylh C8H8,styrene    C8H10,ethylbenz C8H16,1-octene  C8H17,n-octyl  
 C8H18,n-octane  C8H18,isooctane C9H19,n-nonyl   C10H8,naphthale C10H21,n-decyl 
 C12H9,o-bipheny C12H10,biphenyl *H              HCO             HCCN           
 HCCO            HNC             HNCO            HNO             HNO2           
 HNO3            HO2             HCHO,formaldehy HCOOH           H2O2           
 (HCOOH)2        *N              NCO             *NH             NH2            
 NH2OH           *NO             NO2             NO3             NCN            
 N2H2            NH2NO2          N2H4            N2O             N2O3           
 N2O4            N2O5            N3              N3H             *O             
 *OH             *O2             O3              H2O(cr)         H2O(L)         

 NOTE. WEIGHT FRACTION OF FUEL IN TOTAL FUELS AND OF OXIDANT IN TOTAL OXIDANTS






 POINT ITN      T            H           O           C           N 

   1    2    1250.573      -7.853     -32.771      -1.868     -12.863

 Pinf/Pt = 1.749571
   2    4    1179.596      -8.050     -33.964      -1.772     -13.050

 Pinf/Pt = 1.740935
   2    2    1180.179      -8.049     -33.953      -1.773     -13.049

 Pinf/Pt = 1.740999
   2    1    1180.175      -8.049     -33.954      -1.773     -13.049

   3    5     948.454      -9.012     -39.401      -1.449     -13.988

   3    3     955.401      -8.974     -39.193      -1.459     -13.951

   3    2     955.427      -8.974     -39.192      -1.459     -13.951






              THEORETICAL ROCKET PERFORMANCE ASSUMING EQUILIBRIUM

           COMPOSITION DURING EXPANSION FROM INFINITE AREA COMBUSTOR

 Pin =   352.0 PSIA
 CASE =                

             REACTANT                    WT FRACTION      ENERGY      TEMP
                                          (SEE NOTE)     KJ/KG-MOL      K  
 OXIDANT     H2O2(L)                      0.9900000   -190013.250    273.150
 OXIDANT     H2O(L)                       0.0100000   -287717.011    273.150
 FUEL        ABS                          1.0000000     62630.000    273.150

 O/F=    1.00000  %FUEL= 50.000000  R,EQ.RATIO= 3.519385  PHI,EQ.RATIO= 6.086818

                 CHAMBER   THROAT     EXIT
 Pinf/P            1.0000   1.7410   20.019
 P, BAR            24.270   13.940   1.2123
 T, K             1250.57  1180.17   955.43
 RHO, KG/CU M    3.9775 0 2.4636 0 2.8493-1
 H, KJ/KG        -2297.11 -2622.85 -3819.02
 U, KJ/KG        -2907.29 -3188.71 -4244.50
 G, KJ/KG        -17055.8 -16550.8 -15094.6
 S, KJ/(KG)(K)    11.8016  11.8016  11.8016

 M, (1/n)          17.041   17.341   18.670
 MW, MOL WT        15.306   15.244   14.922
 (dLV/dLP)t      -1.09362 -1.10008 -1.10398
 (dLV/dLT)p        2.1423   2.3169   2.7213
 Cp, KJ/(KG)(K)    9.5484  11.1186  15.7331
 GAMMAs            1.1640   1.1513   1.1181
 SON VEL,M/SEC      842.8    807.1    689.7
 MACH NUMBER        0.000    1.000    2.529

 PERFORMANCE PARAMETERS

 Ae/At                      1.0000   4.0000
 CSTAR, M/SEC               1220.6   1220.6
 CF                         0.6613   1.4294
 Ivac, M/SEC                1508.2   1988.5
 Isp, M/SEC                  807.1   1744.7


 MOLE FRACTIONS

 CH4              0.04791  0.04572  0.03423
 *CO              0.33657  0.30882  0.18813
 *CO2             0.02926  0.03799  0.07943
 C2H4             0.00001  0.00000  0.00000
 C2H6             0.00001  0.00000  0.00000
 HCN              0.00002  0.00001  0.00000
 *H2              0.40094  0.39469  0.37789
 H2O              0.05466  0.06312  0.09143
 NH3              0.00018  0.00014  0.00005
 *N2              0.02869  0.02860  0.02804
 C(gr)            0.10177  0.12091  0.20079

  * THERMODYNAMIC PROPERTIES FITTED TO 20000.K

    PRODUCTS WHICH WERE CONSIDERED BUT WHOSE MOLE FRACTIONS
    WERE LESS THAN 5.000000E-06 FOR ALL ASSIGNED CONDITIONS

 *C              *CH             CH2             CH3             CH2OH          
 CH3O            CH3OH           CH3OOH          *CN             CNN            
 COOH            *C2             C2H             C2H2,acetylene  C2H2,vinylidene
 CH2CO,ketene    O(CH)2O         HO(CO)2OH       C2H3,vinyl      CH3CN          
 CH3CO,acetyl    C2H4O,ethylen-o CH3CHO,ethanal  CH3COOH         OHCH2COOH      
 C2H5            CH3N2CH3        C2H5OH          CH3OCH3         CH3O2CH3       
 CCN             CNC             OCCN            C2N2            C2O            
 *C3             C3H3,1-propynl  C3H3,2-propynl  C3H4,allene     C3H4,propyne   
 C3H4,cyclo-     C3H5,allyl      C3H6,propylene  C3H6,cyclo-     C3H6O,propylox 
 C3H6O,acetone   C3H6O,propanal  C3H7,n-propyl   C3H7,i-propyl   C3H8           
 C3H8O,1propanol C3H8O,2propanol CNCOCN          C3O2            *C4            
 C4H2,butadiyne  C4H4,1,3-cyclo- C4H6,butadiene  C4H6,1butyne    C4H6,2butyne   
 C4H6,cyclo-     C4H8,1-butene   C4H8,cis2-buten C4H8,tr2-butene C4H8,isobutene 
 C4H8,cyclo-     (CH3COOH)2      C4H9,n-butyl    C4H9,i-butyl    C4H9,s-butyl   
 C4H9,t-butyl    C4H10,n-butane  C4H10,isobutane C4N2            *C5            
 C5H6,1,3cyclo-  C5H8,cyclo-     C5H10,1-pentene C5H10,cyclo-    C5H11,pentyl   
 C5H11,t-pentyl  C5H12,n-pentane C5H12,i-pentane CH3C(CH3)2CH3   C6H2           
 C6H5,phenyl     C6H5O,phenoxy   C6H6            C6H5OH,phenol   C6H10,cyclo-   
 C6H12,1-hexene  C6H12,cyclo-    C6H13,n-hexyl   C6H14,n-hexane  C7H7,benzyl    
 C7H8            C7H8O,cresol-mx C7H14,1-heptene C7H15,n-heptyl  C7H16,n-heptane
 C7H16,2-methylh C8H8,styrene    C8H10,ethylbenz C8H16,1-octene  C8H17,n-octyl  
 C8H18,n-octane  C8H18,isooctane C9H19,n-nonyl   C10H8,naphthale C10H21,n-decyl 
 C12H9,o-bipheny C12H10,biphenyl *H              HCO             HCCN           
 HCCO            HNC             HNCO            HNO             HNO2           
 HNO3            HO2             HCHO,formaldehy HCOOH           H2O2           
 (HCOOH)2        *N              NCO             *NH             NH2            
 NH2OH           *NO             NO2             NO3             NCN            
 N2H2            NH2NO2          N2H4            N2O             N2O3           
 N2O4            N2O5            N3              N3H             *O             
 *OH             *O2             O3              H2O(cr)         H2O(L)         

 NOTE. WEIGHT FRACTION OF FUEL IN TOTAL FUELS AND OF OXIDANT IN TOTAL OXIDANTS





           THEORETICAL ROCKET PERFORMANCE ASSUMING FROZEN COMPOSITION

 Pin =   352.0 PSIA
 CASE =                

             REACTANT                    WT FRACTION      ENERGY      TEMP
                                          (SEE NOTE)     KJ/KG-MOL      K  
 OXIDANT     H2O2(L)                      0.9900000   -190013.250    273.150
 OXIDANT     H2O(L)                       0.0100000   -287717.011    273.150
 FUEL        ABS                          1.0000000     62630.000    273.150

 O/F=    1.00000  %FUEL= 50.000000  R,EQ.RATIO= 3.519385  PHI,EQ.RATIO= 6.086818

                 CHAMBER   THROAT     EXIT
 Pinf/P            1.0000   1.8186   28.058
 P, BAR            24.270   13.346  0.86498
 T, K             1250.57  1100.76   584.83
 RHO, KG/CU M    3.9775 0 2.4848 0 3.0313-1
 H, KJ/KG        -2297.11 -2639.81 -3736.36
 U, KJ/KG        -2907.29 -3176.90 -4021.71
 G, KJ/KG        -17055.8 -15630.5 -10638.3
 S, KJ/(KG)(K)    11.8016  11.8016  11.8016

 M, (1/n)          17.041   17.041   17.041
 MW, MOL WT        15.306   15.306   15.306
 Cp, KJ/(KG)(K)    2.3190   2.2549   1.9823
 GAMMAs            1.2665   1.2761   1.3265
 SON VEL,M/SEC      879.1    827.9    615.2
 MACH NUMBER        0.000    1.000    2.758

 PERFORMANCE PARAMETERS

 Ae/At                      1.0000   4.0000
 CSTAR, M/SEC               1179.8   1179.8
 CF                         0.7017   1.4381
 Ivac, M/SEC                1476.6   1864.8
 Isp, M/SEC                  827.9   1696.6

 MOLE FRACTIONS

 CH4             0.04791   *CO             0.33657   *CO2            0.02926
 C2H4            0.00001   C2H6            0.00001   HCN             0.00002
 *H2             0.40094   H2O             0.05466   NH3             0.00018
 *N2             0.02869   C(gr)           0.10177

  * THERMODYNAMIC PROPERTIES FITTED TO 20000.K

    PRODUCTS WHICH WERE CONSIDERED BUT WHOSE MOLE FRACTIONS
    WERE LESS THAN 5.000000E-06 FOR ALL ASSIGNED CONDITIONS

 *C              *CH             CH2             CH3             CH2OH          
 CH3O            CH3OH           CH3OOH          *CN             CNN            
 COOH            *C2             C2H             C2H2,acetylene  C2H2,vinylidene
 CH2CO,ketene    O(CH)2O         HO(CO)2OH       C2H3,vinyl      CH3CN          
 CH3CO,acetyl    C2H4O,ethylen-o CH3CHO,ethanal  CH3COOH         OHCH2COOH      
 C2H5            CH3N2CH3        C2H5OH          CH3OCH3         CH3O2CH3       
 CCN             CNC             OCCN            C2N2            C2O            
 *C3             C3H3,1-propynl  C3H3,2-propynl  C3H4,allene     C3H4,propyne   
 C3H4,cyclo-     C3H5,allyl      C3H6,propylene  C3H6,cyclo-     C3H6O,propylox 
 C3H6O,acetone   C3H6O,propanal  C3H7,n-propyl   C3H7,i-propyl   C3H8           
 C3H8O,1propanol C3H8O,2propanol CNCOCN          C3O2            *C4            
 C4H2,butadiyne  C4H4,1,3-cyclo- C4H6,butadiene  C4H6,1butyne    C4H6,2butyne   
 C4H6,cyclo-     C4H8,1-butene   C4H8,cis2-buten C4H8,tr2-butene C4H8,isobutene 
 C4H8,cyclo-     (CH3COOH)2      C4H9,n-butyl    C4H9,i-butyl    C4H9,s-butyl   
 C4H9,t-butyl    C4H10,n-butane  C4H10,isobutane C4N2            *C5            
 C5H6,1,3cyclo-  C5H8,cyclo-     C5H10,1-pentene C5H10,cyclo-    C5H11,pentyl   
 C5H11,t-pentyl  C5H12,n-pentane C5H12,i-pentane CH3C(CH3)2CH3   C6H2           
 C6H5,phenyl     C6H5O,phenoxy   C6H6            C6H5OH,phenol   C6H10,cyclo-   
 C6H12,1-hexene  C6H12,cyclo-    C6H13,n-hexyl   C6H14,n-hexane  C7H7,benzyl    
 C7H8            C7H8O,cresol-mx C7H14,1-heptene C7H15,n-heptyl  C7H16,n-heptane
 C7H16,2-methylh C8H8,styrene    C8H10,ethylbenz C8H16,1-octene  C8H17,n-octyl  
 C8H18,n-octane  C8H18,isooctane C9H19,n-nonyl   C10H8,naphthale C10H21,n-decyl 
 C12H9,o-bipheny C12H10,biphenyl *H              HCO             HCCN           
 HCCO            HNC             HNCO            HNO             HNO2           
 HNO3            HO2             HCHO,formaldehy HCOOH           H2O2           
 (HCOOH)2        *N              NCO             *NH             NH2            
 NH2OH           *NO             NO2             NO3             NCN            
 N2H2            NH2NO2          N2H4            N2O             N2O3           
 N2O4            N2O5            N3              N3H             *O             
 *OH             *O2             O3              H2O(cr)         H2O(L)         

 NOTE. WEIGHT FRACTION OF FUEL IN TOTAL FUELS AND OF OXIDANT IN TOTAL OXIDANTS






 POINT ITN      T            H           O           C           N 

   1    2    1250.603      -7.852     -32.771      -1.868     -12.863

 Pinf/Pt = 1.749572
   2    4    1179.623      -8.050     -33.963      -1.772     -13.050

 Pinf/Pt = 1.740936
   2    2    1180.206      -8.048     -33.953      -1.773     -13.049

 Pinf/Pt = 1.741000
   2    1    1180.202      -8.048     -33.953      -1.773     -13.049

   3    5     948.471      -9.012     -39.401      -1.449     -13.988

   3    3     955.419      -8.974     -39.192      -1.459     -13.951

   3    2     955.445      -8.974     -39.192      -1.459     -13.951






              THEORETICAL ROCKET PERFORMANCE ASSUMING EQUILIBRIUM

           COMPOSITION DURING EXPANSION FROM INFINITE AREA COMBUSTOR

 Pin =   352.2 PSIA
 CASE =                

             REACTANT                    WT FRACTION      ENERGY      TEMP
                                          (SEE NOTE)     KJ/KG-MOL      K  
 OXIDANT     H2O2(L)                      0.9900000   -190013.250    273.150
 OXIDANT     H2O(L)                       0.0100000   -287717.011    273.150
 FUEL        ABS                          1.0000000     62630.000    273.150

 O/F=    1.00000  %FUEL= 50.000000  R,EQ.RATIO= 3.519385  PHI,EQ.RATIO= 6.086818

                 CHAMBER   THROAT     EXIT
 Pinf/P            1.0000   1.7410   20.019
 P, BAR            24.280   13.946   1.2128
 T, K             1250.60  1180.20   955.44
 RHO, KG/CU M    3.9791 0 2.4645 0 2.8505-1
 H, KJ/KG        -2297.11 -2622.85 -3819.04
 U, KJ/KG        -2907.30 -3188.72 -4244.52
 G, KJ/KG        -17055.9 -16550.9 -15094.6
 S, KJ/(KG)(K)    11.8014  11.8014  11.8014

 M, (1/n)          17.041   17.341   18.671
 MW, MOL WT        15.307   15.245   14.922
 (dLV/dLP)t      -1.09363 -1.10008 -1.10398
 (dLV/dLT)p        2.1423   2.3170   2.7213
 Cp, KJ/(KG)(K)    9.5482  11.1184  15.7326
 GAMMAs            1.1640   1.1513   1.1181
 SON VEL,M/SEC      842.8    807.1    689.7
 MACH NUMBER        0.000    1.000    2.529

 PERFORMANCE PARAMETERS

 Ae/At                      1.0000   4.0000
 CSTAR, M/SEC               1220.6   1220.6
 CF                         0.6613   1.4294
 Ivac, M/SEC                1508.2   1988.5
 Isp, M/SEC                  807.1   1744.7


 MOLE FRACTIONS

 CH4              0.04791  0.04573  0.03424
 *CO              0.33657  0.30882  0.18813
 *CO2             0.02926  0.03799  0.07943
 C2H4             0.00001  0.00000  0.00000
 C2H6             0.00001  0.00000  0.00000
 HCN              0.00002  0.00001  0.00000
 *H2              0.40093  0.39468  0.37788
 H2O              0.05466  0.06313  0.09144
 NH3              0.00018  0.00014  0.00005
 *N2              0.02869  0.02860  0.02804
 C(gr)            0.10177  0.12091  0.20079

  * THERMODYNAMIC PROPERTIES FITTED TO 20000.K

    PRODUCTS WHICH WERE CONSIDERED BUT WHOSE MOLE FRACTIONS
    WERE LESS THAN 5.000000E-06 FOR ALL ASSIGNED CONDITIONS

 *C              *CH             CH2             CH3             CH2OH          
 CH3O            CH3OH           CH3OOH          *CN             CNN            
 COOH            *C2             C2H             C2H2,acetylene  C2H2,vinylidene
 CH2CO,ketene    O(CH)2O         HO(CO)2OH       C2H3,vinyl      CH3CN          
 CH3CO,acetyl    C2H4O,ethylen-o CH3CHO,ethanal  CH3COOH         OHCH2COOH      
 C2H5            CH3N2CH3        C2H5OH          CH3OCH3         CH3O2CH3       
 CCN             CNC             OCCN            C2N2            C2O            
 *C3             C3H3,1-propynl  C3H3,2-propynl  C3H4,allene     C3H4,propyne   
 C3H4,cyclo-     C3H5,allyl      C3H6,propylene  C3H6,cyclo-     C3H6O,propylox 
 C3H6O,acetone   C3H6O,propanal  C3H7,n-propyl   C3H7,i-propyl   C3H8           
[...]
 H2O2            (HCOOH)2        *N              NCO             *NH            
 NH2             NH3             NH2OH           NO2             NO3            
 NCN             N2H2            NH2NO2          N2H4            N2O            
 N2O3            N2O4            N2O5            N3              N3H            
 *O              O3              C(gr)           H2O(cr)         H2O(L)         

 NOTE. WEIGHT FRACTION OF FUEL IN TOTAL FUELS AND OF OXIDANT IN TOTAL OXIDANTS






 POINT ITN      T            H           O           C           N 

   1    1    1405.442     -15.574     -12.783     -38.977     -14.854

 Pinf/Pt = 1.793825
   2    3    1254.498     -16.846     -12.898     -42.850     -14.974

 Pinf/Pt = 1.800462
   2    2    1253.583     -16.855     -12.899     -42.877     -14.974

 Pinf/Pt = 1.800503
   2    1    1253.577     -16.855     -12.899     -42.877     -14.974

   3    4     721.290     -25.594     -13.468     -70.058     -15.579

   3    2     706.470     -26.025     -13.490     -71.415     -15.602

   3    1     706.506     -26.024     -13.490     -71.412     -15.602






              THEORETICAL ROCKET PERFORMANCE ASSUMING EQUILIBRIUM

           COMPOSITION DURING EXPANSION FROM INFINITE AREA COMBUSTOR

 Pin =   352.0 PSIA
 CASE =                

             REACTANT                    WT FRACTION      ENERGY      TEMP
                                          (SEE NOTE)     KJ/KG-MOL      K  
 OXIDANT     H2O2(L)                      0.9900000   -190013.250    273.150
 OXIDANT     H2O(L)                       0.0100000   -287717.011    273.150
 FUEL        ABS                          1.0000000     62630.000    273.150

 O/F=   99.00000  %FUEL=  1.000000  R,EQ.RATIO= 0.535174  PHI,EQ.RATIO= 0.061483

                 CHAMBER   THROAT     EXIT
 Pinf/P            1.0000   1.8005   26.523
 P, BAR            24.270   13.480  0.91506
 T, K             1405.44  1253.58   706.51
 RHO, KG/CU M    4.7180 0 2.9379 0 3.5387-1
 H, KJ/KG        -5622.20 -5908.14 -6853.98
 U, KJ/KG        -6136.61 -6366.96 -7112.57
 G, KJ/KG        -19852.0 -18600.4 -14007.2
 S, KJ/(KG)(K)    10.1248  10.1248  10.1248

 M, (1/n)          22.717   22.717   22.717
 MW, MOL WT        22.717   22.717   22.717
 (dLV/dLP)t      -1.00000 -1.00000 -1.00000
 (dLV/dLT)p        1.0002   1.0000   1.0000
 Cp, KJ/(KG)(K)    1.9141   1.8515   1.6008
 GAMMAs            1.2365   1.2464   1.2964
 SON VEL,M/SEC      797.5    756.2    579.0
 MACH NUMBER        0.000    1.000    2.711

 PERFORMANCE PARAMETERS

 Ae/At                      1.0000   4.0000
 CSTAR, M/SEC               1092.4   1092.4
 CF                         0.6923   1.4368
 Ivac, M/SEC                1362.9   1734.3
 Isp, M/SEC                  756.2   1569.6


 MOLE FRACTIONS

 *CO2             0.01530  0.01530  0.01530
 H2O              0.67665  0.67668  0.67668
 *NO              0.00003  0.00001  0.00000
 *N2              0.00084  0.00085  0.00085
 *OH              0.00005  0.00001  0.00000
 *O2              0.30713  0.30715  0.30716

  * THERMODYNAMIC PROPERTIES FITTED TO 20000.K

    PRODUCTS WHICH WERE CONSIDERED BUT WHOSE MOLE FRACTIONS
    WERE LESS THAN 5.000000E-06 FOR ALL ASSIGNED CONDITIONS

 *C              *CH             CH2             CH3             CH2OH          
 CH3O            CH4             CH3OH           CH3OOH          *CN            
 CNN             *CO             COOH            *C2             C2H            
 C2H2,acetylene  C2H2,vinylidene CH2CO,ketene    O(CH)2O         HO(CO)2OH      
 C2H3,vinyl      CH3CN           CH3CO,acetyl    C2H4            C2H4O,ethylen-o
 CH3CHO,ethanal  CH3COOH         OHCH2COOH       C2H5            C2H6           
 CH3N2CH3        C2H5OH          CH3OCH3         CH3O2CH3        CCN            
 CNC             OCCN            C2N2            C2O             *C3            
 C3H3,1-propynl  C3H3,2-propynl  C3H4,allene     C3H4,propyne    C3H4,cyclo-    
 C3H5,allyl      C3H6,propylene  C3H6,cyclo-     C3H6O,propylox  C3H6O,acetone  
 C3H6O,propanal  C3H7,n-propyl   C3H7,i-propyl   C3H8            C3H8O,1propanol
 C3H8O,2propanol CNCOCN          C3O2            *C4             C4H2,butadiyne 
 C4H4,1,3-cyclo- C4H6,butadiene  C4H6,1butyne    C4H6,2butyne    C4H6,cyclo-    
 C4H8,1-butene   C4H8,cis2-buten C4H8,tr2-butene C4H8,isobutene  C4H8,cyclo-    
 (CH3COOH)2      C4H9,n-butyl    C4H9,i-butyl    C4H9,s-butyl    C4H9,t-butyl   
 C4H10,n-butane  C4H10,isobutane C4N2            *C5             C5H6,1,3cyclo- 
 C5H8,cyclo-     C5H10,1-pentene C5H10,cyclo-    C5H11,pentyl    C5H11,t-pentyl 
 C5H12,n-pentane C5H12,i-pentane CH3C(CH3)2CH3   C6H2            C6H5,phenyl    
 C6H5O,phenoxy   C6H6            C6H5OH,phenol   C6H10,cyclo-    C6H12,1-hexene 
 C6H12,cyclo-    C6H13,n-hexyl   C6H14,n-hexane  C7H7,benzyl     C7H8           
 C7H8O,cresol-mx C7H14,1-heptene C7H15,n-heptyl  C7H16,n-heptane C7H16,2-methylh
 C8H8,styrene    C8H10,ethylbenz C8H16,1-octene  C8H17,n-octyl   C8H18,n-octane 
 C8H18,isooctane C9H19,n-nonyl   C10H8,naphthale C10H21,n-decyl  C12H9,o-bipheny
 C12H10,biphenyl *H              HCN             HCO             HCCN           
 HCCO            HNC             HNCO            HNO             HNO2           
 HNO3            HO2             *H2             HCHO,formaldehy HCOOH          
 H2O2            (HCOOH)2        *N              NCO             *NH            
 NH2             NH3             NH2OH           NO2             NO3            
 NCN             N2H2            NH2NO2          N2H4            N2O            
 N2O3            N2O4            N2O5            N3              N3H            
 *O              O3              C(gr)           H2O(cr)         H2O(L)         

 NOTE. WEIGHT FRACTION OF FUEL IN TOTAL FUELS AND OF OXIDANT IN TOTAL OXIDANTS





           THEORETICAL ROCKET PERFORMANCE ASSUMING FROZEN COMPOSITION

 Pin =   352.0 PSIA
 CASE =                

             REACTANT                    WT FRACTION      ENERGY      TEMP
                                          (SEE NOTE)     KJ/KG-MOL      K  
 OXIDANT     H2O2(L)                      0.9900000   -190013.250    273.150
 OXIDANT     H2O(L)                       0.0100000   -287717.011    273.150
 FUEL        ABS                          1.0000000     62630.000    273.150

 O/F=   99.00000  %FUEL=  1.000000  R,EQ.RATIO= 0.535174  PHI,EQ.RATIO= 0.061483

                 CHAMBER   THROAT     EXIT
 Pinf/P            1.0000   1.8006   26.525
 P, BAR            24.270   13.479  0.91500
 T, K             1405.44  1253.38   706.32
 RHO, KG/CU M    4.7180 0 2.9381 0 3.5393-1
 H, KJ/KG        -5622.20 -5908.14 -6853.79
 U, KJ/KG        -6136.61 -6366.90 -7112.31
 G, KJ/KG        -19852.0 -18598.4 -14005.2
 S, KJ/(KG)(K)    10.1248  10.1248  10.1248

 M, (1/n)          22.717   22.717   22.717
 MW, MOL WT        22.717   22.717   22.717
 Cp, KJ/(KG)(K)    1.9099   1.8501   1.6007
 GAMMAs            1.2371   1.2466   1.2964
 SON VEL,M/SEC      797.7    756.2    578.9
 MACH NUMBER        0.000    1.000    2.711

 PERFORMANCE PARAMETERS

 Ae/At                      1.0000   4.0000
 CSTAR, M/SEC               1092.3   1092.3
 CF                         0.6923   1.4368
 Ivac, M/SEC                1362.9   1734.2
 Isp, M/SEC                  756.2   1569.5

 MOLE FRACTIONS

 *CO2            0.01530   H2O             0.67665   *NO             0.00003
 *N2             0.00084   *OH             0.00005   *O2             0.30713

  * THERMODYNAMIC PROPERTIES FITTED TO 20000.K

    PRODUCTS WHICH WERE CONSIDERED BUT WHOSE MOLE FRACTIONS
    WERE LESS THAN 5.000000E-06 FOR ALL ASSIGNED CONDITIONS

 *C              *CH             CH2             CH3             CH2OH          
 CH3O            CH4             CH3OH           CH3OOH          *CN            
 CNN             *CO             COOH            *C2             C2H            
 C2H2,acetylene  C2H2,vinylidene CH2CO,ketene    O(CH)2O         HO(CO)2OH      
 C2H3,vinyl      CH3CN           CH3CO,acetyl    C2H4            C2H4O,ethylen-o
 CH3CHO,ethanal  CH3COOH         OHCH2COOH       C2H5            C2H6           
 CH3N2CH3        C2H5OH          CH3OCH3         CH3O2CH3        CCN            
 CNC             OCCN            C2N2            C2O             *C3            
 C3H3,1-propynl  C3H3,2-propynl  C3H4,allene     C3H4,propyne    C3H4,cyclo-    
 C3H5,allyl      C3H6,propylene  C3H6,cyclo-     C3H6O,propylox  C3H6O,acetone  
 C3H6O,propanal  C3H7,n-propyl   C3H7,i-propyl   C3H8            C3H8O,1propanol
 C3H8O,2propanol CNCOCN          C3O2            *C4             C4H2,butadiyne 
 C4H4,1,3-cyclo- C4H6,butadiene  C4H6,1butyne    C4H6,2butyne    C4H6,cyclo-    
 C4H8,1-butene   C4H8,cis2-buten C4H8,tr2-butene C4H8,isobutene  C4H8,cyclo-    
 (CH3COOH)2      C4H9,n-butyl    C4H9,i-butyl    C4H9,s-butyl    C4H9,t-butyl   
 C4H10,n-butane  C4H10,isobutane C4N2            *C5             C5H6,1,3cyclo- 
 C5H8,cyclo-     C5H10,1-pentene C5H10,cyclo-    C5H11,pentyl    C5H11,t-pentyl 
 C5H12,n-pentane C5H12,i-pentane CH3C(CH3)2CH3   C6H2            C6H5,phenyl    
 C6H5O,phenoxy   C6H6            C6H5OH,phenol   C6H10,cyclo-    C6H12,1-hexene 
 C6H12,cyclo-    C6H13,n-hexyl   C6H14,n-hexane  C7H7,benzyl     C7H8           
 C7H8O,cresol-mx C7H14,1-heptene C7H15,n-heptyl  C7H16,n-heptane C7H16,2-methylh
 C8H8,styrene    C8H10,ethylbenz C8H16,1-octene  C8H17,n-octyl   C8H18,n-octane 
 C8H18,isooctane C9H19,n-nonyl   C10H8,naphthale C10H21,n-decyl  C12H9,o-bipheny
 C12H10,biphenyl *H              HCN             HCO             HCCN           
 HCCO            HNC             HNCO            HNO             HNO2           
 HNO3            HO2             *H2             HCHO,formaldehy HCOOH          
 H2O2            (HCOOH)2        *N              NCO             *NH            
 NH2             NH3             NH2OH           NO2             NO3            
 NCN             N2H2            NH2NO2          N2H4            N2O            
 N2O3            N2O4            N2O5            N3              N3H            
 *O              O3              C(gr)           H2O(cr)         H2O(L)         

 NOTE. WEIGHT FRACTION OF FUEL IN TOTAL FUELS AND OF OXIDANT IN TOTAL OXIDANTS






 POINT ITN      T            H           O           C           N 

   1    1    1405.442     -15.573     -12.783     -38.977     -14.854

 Pinf/Pt = 1.793825
   2    3    1254.498     -16.846     -12.898     -42.850     -14.973

 Pinf/Pt = 1.800462
   2    2    1253.583     -16.855     -12.899     -42.877     -14.974

 Pinf/Pt = 1.800503
   2    1    1253.577     -16.855     -12.899     -42.877     -14.974

   3    4     721.290     -25.594     -13.467     -70.058     -15.578

   3    2     706.470     -26.025     -13.490     -71.415     -15.602

   3    1     706.506     -26.024     -13.490     -71.412     -15.602






              THEORETICAL ROCKET PERFORMANCE ASSUMING EQUILIBRIUM

           COMPOSITION DURING EXPANSION FROM INFINITE AREA COMBUSTOR

 Pin =   352.2 PSIA
 CASE =                

             REACTANT                    WT FRACTION      ENERGY      TEMP
                                          (SEE NOTE)     KJ/KG-MOL      K  
 OXIDANT     H2O2(L)                      0.9900000   -190013.250    273.150
 OXIDANT     H2O(L)                       0.0100000   -287717.011    273.150
 FUEL        ABS                          1.0000000     62630.000    273.150

 O/F=   99.00000  %FUEL=  1.000000  R,EQ.RATIO= 0.535174  PHI,EQ.RATIO= 0.061483

                 CHAMBER   THROAT     EXIT
 Pinf/P            1.0000   1.8005   26.523
 P, BAR            24.280   13.485  0.91544
 T, K             1405.44  1253.58   706.51
 RHO, KG/CU M    4.7200 0 2.9391 0 3.5402-1
 H, KJ/KG        -5622.20 -5908.14 -6853.98
 U, KJ/KG        -6136.61 -6366.96 -7112.57
 G, KJ/KG        -19851.8 -18600.2 -14007.1
 S, KJ/(KG)(K)    10.1247  10.1247  10.1247

 M, (1/n)          22.717   22.717   22.717
 MW, MOL WT        22.717   22.717   22.717
 (dLV/dLP)t      -1.00000 -1.00000 -1.00000
 (dLV/dLT)p        1.0002   1.0000   1.0000
 Cp, KJ/(KG)(K)    1.9141   1.8515   1.6008
 GAMMAs            1.2365   1.2464   1.2964
 SON VEL,M/SEC      797.5    756.2    579.0
 MACH NUMBER        0.000    1.000    2.711

 PERFORMANCE PARAMETERS

 Ae/At                      1.0000   4.0000
 CSTAR, M/SEC               1092.4   1092.4
 CF                         0.6923   1.4368
 Ivac, M/SEC                1362.9   1734.3
 Isp, M/SEC                  756.2   1569.6


 MOLE FRACTIONS

 *CO2             0.01530  0.01530  0.01530
 H2O              0.67665  0.67668  0.67668
 *NO              0.00003  0.00001  0.00000
 *N2              0.00084  0.00085  0.00085
 *OH              0.00005  0.00001  0.00000
 *O2              0.30713  0.30715  0.30716

  * THERMODYNAMIC PROPERTIES FITTED TO 20000.K

    PRODUCTS WHICH WERE CONSIDERED BUT WHOSE MOLE FRACTIONS
    WERE LESS THAN 5.000000E-06 FOR ALL ASSIGNED CONDITIONS

 *C              *CH             CH2             CH3             CH2OH          
 CH3O            CH4             CH3OH           CH3OOH          *CN            
 CNN             *CO             COOH            *C2             C2H            
 C2H2,acetylene  C2H2,vinylidene CH2CO,ketene    O(CH)2O         HO(CO)2OH      
 C2H3,vinyl      CH3CN           CH3CO,acetyl    C2H4            C2H4O,ethylen-o
 CH3CHO,ethanal  CH3COOH         OHCH2COOH       C2H5            C2H6           
 CH3N2CH3        C2H5OH          CH3OCH3         CH3O2CH3        CCN            
 CNC             OCCN            C2N2            C2O             *C3            
 C3H3,1-propynl  C3H3,2-propynl  C3H4,allene     C3H4,propyne    C3H4,cyclo-    
 C3H5,allyl      C3H6,propylene  C3H6,cyclo-     C3H6O,propylox  C3H6O,acetone  
 C3H6O,propanal  C3H7,n-propyl   C3H7,i-propyl   C3H8            C3H8O,1propanol
 C3H8O,2propanol CNCOCN          C3O2            *C4             C4H2,butadiyne 
 C4H4,1,3-cyclo- C4H6,butadiene  C4H6,1butyne    C4H6,2butyne    C4H6,cyclo-    
 C4H8,1-butene   C4H8,cis2-buten C4H8,tr2-butene C4H8,isobutene  C4H8,cyclo-    
 (CH3COOH)2      C4H9,n-butyl    C4H9,i-butyl    C4H9,s-butyl    C4H9,t-butyl   
 C4H10,n-butane  C4H10,isobutane C4N2            *C5             C5H6,1,3cyclo- 
 C5H8,cyclo-     C5H10,1-pentene C5H10,cyclo-    C5H11,pentyl    C5H11,t-pentyl 
 C5H12,n-pentane C5H12,i-pentane CH3C(CH3)2CH3   C6H2            C6H5,phenyl    
 C6H5O,phenoxy   C6H6            C6H5OH,phenol   C6H10,cyclo-    C6H12,1-hexene 
 C6H12,cyclo-    C6H13,n-hexyl   C6H14,n-hexane  C7H7,benzyl     C7H8           
 C7H8O,cresol-mx C7H14,1-heptene C7H15,n-heptyl  C7H16,n-heptane C7H16,2-methylh
 C8H8,styrene    C8H10,ethylbenz C8H16,1-octene  C8H17,n-octyl   C8H18,n-octane 
 C8H18,isooctane C9H19,n-nonyl   C10H8,naphthale C10H21,n-decyl  C12H9,o-bipheny
 C12H10,biphenyl *H              HCN             HCO             HCCN           
 HCCO            HNC             HNCO            HNO             HNO2           
 HNO3            HO2             *H2             HCHO,formaldehy HCOOH          
 H2O2            (HCOOH)2        *N              NCO             *NH            
 NH2             NH3             NH2OH           NO2             NO3            
 NCN             N2H2            NH2NO2          N2H4            N2O            
 N2O3            N2O4            N2O5            N3              N3H            
 *O              O3              C(gr)           H2O(cr)         H2O(L)         

 NOTE. WEIGHT FRACTION OF FUEL IN TOTAL FUELS AND OF OXIDANT IN TOTAL OXIDANTS





           THEORETICAL ROCKET PERFORMANCE ASSUMING FROZEN COMPOSITION

 Pin =   352.2 PSIA
 CASE =                

             REACTANT                    WT FRACTION      ENERGY      TEMP
                                          (SEE NOTE)     KJ/KG-MOL      K  
 OXIDANT     H2O2(L)                      0.9900000   -190013.250    273.150
 OXIDANT     H2O(L)                       0.0100000   -287717.011    273.150
 FUEL        ABS                          1.0000000     62630.000    273.150

 O/F=   99.00000  %FUEL=  1.000000  R,EQ.RATIO= 0.535174  PHI,EQ.RATIO= 0.061483

                 CHAMBER   THROAT     EXIT
 Pinf/P            1.0000   1.8006   26.525
 P, BAR            24.280   13.484  0.91537
 T, K             1405.44  1253.38   706.32
 RHO, KG/CU M    4.7200 0 2.9393 0 3.5408-1
 H, KJ/KG        -5622.20 -5908.14 -6853.79
 U, KJ/KG        -6136.61 -6366.90 -7112.31
 G, KJ/KG        -19851.8 -18598.2 -14005.1
 S, KJ/(KG)(K)    10.1247  10.1247  10.1247

 M, (1/n)          22.717   22.717   22.717
 MW, MOL WT        22.717   22.717   22.717
 Cp, KJ/(KG)(K)    1.9099   1.8501   1.6007
 GAMMAs            1.2371   1.2466   1.2964
 SON VEL,M/SEC      797.7    756.2    578.9
 MACH NUMBER        0.000    1.000    2.711

 PERFORMANCE PARAMETERS

 Ae/At                      1.0000   4.0000
 CSTAR, M/SEC               1092.3   1092.3
 CF                         0.6923   1.4368
 Ivac, M/SEC                1362.9   1734.2
 Isp, M/SEC                  756.2   1569.5

 MOLE FRACTIONS

 *CO2            0.01530   H2O             0.67665   *NO             0.00003
 *N2             0.00084   *OH             0.00005   *O2             0.30713

  * THERMODYNAMIC PROPERTIES FITTED TO 20000.K

    PRODUCTS WHICH WERE CONSIDERED BUT WHOSE MOLE FRACTIONS
    WERE LESS THAN 5.000000E-06 FOR ALL ASSIGNED CONDITIONS

 *C              *CH             CH2             CH3             CH2OH          
 CH3O            CH4             CH3OH           CH3OOH          *CN            
 CNN             *CO             COOH            *C2             C2H            
 C2H2,acetylene  C2H2,vinylidene CH2CO,ketene    O(CH)2O         HO(CO)2OH      
 C2H3,vinyl      CH3CN           CH3CO,acetyl    C2H4            C2H4O,ethylen-o
 CH3CHO,ethanal  CH3COOH         OHCH2COOH       C2H5            C2H6           
 CH3N2CH3        C2H5OH          CH3OCH3         CH3O2CH3        CCN            
 CNC             OCCN            C2N2            C2O             *C3            
 C3H3,1-propynl  C3H3,2-propynl  C3H4,allene     C3H4,propyne    C3H4,cyclo-    
 C3H5,allyl      C3H6,propylene  C3H6,cyclo-     C3H6O,propylox  C3H6O,acetone  
 C3H6O,propanal  C3H7,n-propyl   C3H7,i-propyl   C3H8            C3H8O,1propanol
 C3H8O,2propanol CNCOCN          C3O2            *C4             C4H2,butadiyne 
 C4H4,1,3-cyclo- C4H6,butadiene  C4H6,1butyne    C4H6,2butyne    C4H6,cyclo-    
 C4H8,1-butene   C4H8,cis2-buten C4H8,tr2-butene C4H8,isobutene  C4H8,cyclo-    
 (CH3COOH)2      C4H9,n-butyl    C4H9,i-butyl    C4H9,s-butyl    C4H9,t-butyl   
 C4H10,n-butane  C4H10,isobutane C4N2            *C5             C5H6,1,3cyclo- 
 C5H8,cyclo-     C5H10,1-pentene C5H10,cyclo-    C5H11,pentyl    C5H11,t-pentyl 
 C5H12,n-pentane C5H12,i-pentane CH3C(CH3)2CH3   C6H2            C6H5,phenyl    
 C6H5O,phenoxy   C6H6            C6H5OH,phenol   C6H10,cyclo-    C6H12,1-hexene 
 C6H12,cyclo-    C6H13,n-hexyl   C6H14,n-hexane  C7H7,benzyl     C7H8           
 C7H8O,cresol-mx C7H14,1-heptene C7H15,n-heptyl  C7H16,n-heptane C7H16,2-methylh
 C8H8,styrene    C8H10,ethylbenz C8H16,1-octene  C8H17,n-octyl   C8H18,n-octane 
 C8H18,isooctane C9H19,n-nonyl   C10H8,naphthale C10H21,n-decyl  C12H9,o-bipheny
 C12H10,biphenyl *H              HCN             HCO             HCCN           
 HCCO            HNC             HNCO            HNO             HNO2           
 HNO3            HO2             *H2             HCHO,formaldehy HCOOH          
 H2O2            (HCOOH)2        *N              NCO             *NH            
 NH2             NH3             NH2OH           NO2             NO3            
 NCN             N2H2            NH2NO2          N2H4            N2O            
 N2O3            N2O4            N2O5            N3              N3H            
 *O              O3              C(gr)           H2O(cr)         H2O(L)         

 NOTE. WEIGHT FRACTION OF FUEL IN TOTAL FUELS AND OF OXIDANT IN TOTAL OXIDANTS



